/*---------------------------------------------------------------------------*\
| =========                 |                                                 |
| \\      /  F ield         | OpenFOAM: The Open Source CFD Toolbox           |
|  \\    /   O peration     | Version:  2012                                  |
|   \\  /    A nd           | Website:  www.openfoam.com                      |
|    \\/     M anipulation  |                                                 |
\*---------------------------------------------------------------------------*/
Build  : _e91649cfd8-20210420 OPENFOAM=2012 patch=210414
Arch   : "LSB;label=32;scalar=64"
Exec   : pimpleFoam
Date   : Jun 21 2021
Time   : 10:01:20
Host   : scw-a5ymyf
PID    : 12508
I/O    : uncollated
Case   : /home/julian/software/mbdyn-adapter/210621/Mesh_pointDisplacement_DiffusivityQuadratic/fluid
nProcs : 1
trapFpe: Floating point exception trapping enabled (FOAM_SIGFPE).
fileModificationChecking : Monitoring run-time modified files using timeStampMaster (fileModificationSkew 5, maxFileModificationPolls 20)
allowSystemOperations : Allowing user-supplied system call operations

// * * * * * * * * * * * * * * * * * * * * * * * * * * * * * * * * * * * * * //
Create time

Overriding DebugSwitches according to controlDict
    overset (unregistered)
    dynamicOversetFvMesh (unregistered)
    cellVolumeWeight 0;

    inverseDistance 0;

    displacementLaplacian 1;

    motionDiffusivity 1;

Create mesh for time = 0

Selecting dynamicFvMesh dynamicMotionSolverFvMesh
Selecting motion solver: solidBodyDisplacementLaplacian
Applying solid body motion to entire mesh
Selecting solid-body motion function rotatingMotion
Selecting motion interpolation: patchCorrected
Selecting motion diffusion: quadratic
Selecting motion diffusion: inversePointDistance

PIMPLE: no residual control data found. Calculations will employ 4 corrector loops

Reading field p

Reading field U

Reading/calculating face flux field phi

Selecting incompressible transport model Newtonian
Selecting turbulence model type laminar
Selecting laminar stress model Stokes
No MRF models present

No finite volume options present
Constructing face velocity Uf

Courant Number mean: 0 max: 0

Starting time loop

Courant Number mean: 0 max: 0
Time = 0.0001

PIMPLE: iteration 1
DICPCG:  Solving for cellDisplacementx, Initial residual = 1, Final residual = 5.453637148e-05, No Iterations 1
DICPCG:  Solving for cellDisplacementy, Initial residual = 1, Final residual = 5.096334173e-06, No Iterations 1
Mesh Courant Number mean: 7.99149538e-09 max: 0.6728483641
smoothSolver:  Solving for Ux, Initial residual = 0, Final residual = 0, No Iterations 1
smoothSolver:  Solving for Uy, Initial residual = 0, Final residual = 0, No Iterations 1
FDICPBiCGStab:  Solving for p:  solution singularity
FDICPBiCGStab:  Solving for p:  solution singularity
FDICPBiCGStab:  Solving for p:  solution singularity
time step continuity errors : sum local = 0, global = 0, cumulative = 0
FDICPBiCGStab:  Solving for p:  solution singularity
FDICPBiCGStab:  Solving for p:  solution singularity
FDICPBiCGStab:  Solving for p:  solution singularity
time step continuity errors : sum local = 0, global = 0, cumulative = 0
FDICPBiCGStab:  Solving for p:  solution singularity
FDICPBiCGStab:  Solving for p:  solution singularity
FDICPBiCGStab:  Solving for p:  solution singularity
time step continuity errors : sum local = 0, global = 0, cumulative = 0
PIMPLE: iteration 2
smoothSolver:  Solving for Ux, Initial residual = 0, Final residual = 0, No Iterations 1
smoothSolver:  Solving for Uy, Initial residual = 0, Final residual = 0, No Iterations 1
FDICPBiCGStab:  Solving for p:  solution singularity
FDICPBiCGStab:  Solving for p:  solution singularity
FDICPBiCGStab:  Solving for p:  solution singularity
time step continuity errors : sum local = 0, global = 0, cumulative = 0
FDICPBiCGStab:  Solving for p:  solution singularity
FDICPBiCGStab:  Solving for p:  solution singularity
FDICPBiCGStab:  Solving for p:  solution singularity
time step continuity errors : sum local = 0, global = 0, cumulative = 0
FDICPBiCGStab:  Solving for p:  solution singularity
FDICPBiCGStab:  Solving for p:  solution singularity
FDICPBiCGStab:  Solving for p:  solution singularity
time step continuity errors : sum local = 0, global = 0, cumulative = 0
PIMPLE: iteration 3
smoothSolver:  Solving for Ux, Initial residual = 0, Final residual = 0, No Iterations 1
smoothSolver:  Solving for Uy, Initial residual = 0, Final residual = 0, No Iterations 1
FDICPBiCGStab:  Solving for p:  solution singularity
FDICPBiCGStab:  Solving for p:  solution singularity
FDICPBiCGStab:  Solving for p:  solution singularity
time step continuity errors : sum local = 0, global = 0, cumulative = 0
FDICPBiCGStab:  Solving for p:  solution singularity
FDICPBiCGStab:  Solving for p:  solution singularity
FDICPBiCGStab:  Solving for p:  solution singularity
time step continuity errors : sum local = 0, global = 0, cumulative = 0
FDICPBiCGStab:  Solving for p:  solution singularity
FDICPBiCGStab:  Solving for p:  solution singularity
FDICPBiCGStab:  Solving for p:  solution singularity
time step continuity errors : sum local = 0, global = 0, cumulative = 0
PIMPLE: iteration 4
smoothSolver:  Solving for Ux, Initial residual = 0, Final residual = 0, No Iterations 1
smoothSolver:  Solving for Uy, Initial residual = 0, Final residual = 0, No Iterations 1
FDICPBiCGStab:  Solving for p:  solution singularity
FDICPBiCGStab:  Solving for p:  solution singularity
FDICPBiCGStab:  Solving for p:  solution singularity
time step continuity errors : sum local = 0, global = 0, cumulative = 0
FDICPBiCGStab:  Solving for p:  solution singularity
FDICPBiCGStab:  Solving for p:  solution singularity
FDICPBiCGStab:  Solving for p:  solution singularity
time step continuity errors : sum local = 0, global = 0, cumulative = 0
FDICPBiCGStab:  Solving for p:  solution singularity
FDICPBiCGStab:  Solving for p:  solution singularity
FDICPBiCGStab:  Solving for p:  solution singularity
time step continuity errors : sum local = 0, global = 0, cumulative = 0
ExecutionTime = 0.46 s  ClockTime = 1 s

Courant Number mean: 7.99149538e-09 max: 0.6728483641
Time = 0.0002

PIMPLE: iteration 1
DICPCG:  Solving for cellDisplacementx, Initial residual = 0.3334178498, Final residual = 1.854350366e-05, No Iterations 1
DICPCG:  Solving for cellDisplacementy, Initial residual = 0.3333334467, Final residual = 1.709745295e-06, No Iterations 1
Mesh Courant Number mean: 8.845970005e-09 max: 0.6729139444
smoothSolver:  Solving for Ux, Initial residual = 0, Final residual = 0, No Iterations 1
smoothSolver:  Solving for Uy, Initial residual = 0, Final residual = 0, No Iterations 1
FDICPBiCGStab:  Solving for p:  solution singularity
FDICPBiCGStab:  Solving for p:  solution singularity
FDICPBiCGStab:  Solving for p:  solution singularity
time step continuity errors : sum local = 0, global = 0, cumulative = 0
FDICPBiCGStab:  Solving for p:  solution singularity
FDICPBiCGStab:  Solving for p:  solution singularity
FDICPBiCGStab:  Solving for p:  solution singularity
time step continuity errors : sum local = 0, global = 0, cumulative = 0
FDICPBiCGStab:  Solving for p:  solution singularity
FDICPBiCGStab:  Solving for p:  solution singularity
FDICPBiCGStab:  Solving for p:  solution singularity
time step continuity errors : sum local = 0, global = 0, cumulative = 0
PIMPLE: iteration 2
smoothSolver:  Solving for Ux, Initial residual = 0, Final residual = 0, No Iterations 1
smoothSolver:  Solving for Uy, Initial residual = 0, Final residual = 0, No Iterations 1
FDICPBiCGStab:  Solving for p:  solution singularity
FDICPBiCGStab:  Solving for p:  solution singularity
FDICPBiCGStab:  Solving for p:  solution singularity
time step continuity errors : sum local = 0, global = 0, cumulative = 0
FDICPBiCGStab:  Solving for p:  solution singularity
FDICPBiCGStab:  Solving for p:  solution singularity
FDICPBiCGStab:  Solving for p:  solution singularity
time step continuity errors : sum local = 0, global = 0, cumulative = 0
FDICPBiCGStab:  Solving for p:  solution singularity
FDICPBiCGStab:  Solving for p:  solution singularity
FDICPBiCGStab:  Solving for p:  solution singularity
time step continuity errors : sum local = 0, global = 0, cumulative = 0
PIMPLE: iteration 3
smoothSolver:  Solving for Ux, Initial residual = 0, Final residual = 0, No Iterations 1
smoothSolver:  Solving for Uy, Initial residual = 0, Final residual = 0, No Iterations 1
FDICPBiCGStab:  Solving for p:  solution singularity
FDICPBiCGStab:  Solving for p:  solution singularity
FDICPBiCGStab:  Solving for p:  solution singularity
time step continuity errors : sum local = 0, global = 0, cumulative = 0
FDICPBiCGStab:  Solving for p:  solution singularity
FDICPBiCGStab:  Solving for p:  solution singularity
FDICPBiCGStab:  Solving for p:  solution singularity
time step continuity errors : sum local = 0, global = 0, cumulative = 0
FDICPBiCGStab:  Solving for p:  solution singularity
FDICPBiCGStab:  Solving for p:  solution singularity
FDICPBiCGStab:  Solving for p:  solution singularity
time step continuity errors : sum local = 0, global = 0, cumulative = 0
PIMPLE: iteration 4
smoothSolver:  Solving for Ux, Initial residual = 0, Final residual = 0, No Iterations 1
smoothSolver:  Solving for Uy, Initial residual = 0, Final residual = 0, No Iterations 1
FDICPBiCGStab:  Solving for p:  solution singularity
FDICPBiCGStab:  Solving for p:  solution singularity
FDICPBiCGStab:  Solving for p:  solution singularity
time step continuity errors : sum local = 0, global = 0, cumulative = 0
FDICPBiCGStab:  Solving for p:  solution singularity
FDICPBiCGStab:  Solving for p:  solution singularity
FDICPBiCGStab:  Solving for p:  solution singularity
time step continuity errors : sum local = 0, global = 0, cumulative = 0
FDICPBiCGStab:  Solving for p:  solution singularity
FDICPBiCGStab:  Solving for p:  solution singularity
FDICPBiCGStab:  Solving for p:  solution singularity
time step continuity errors : sum local = 0, global = 0, cumulative = 0
ExecutionTime = 0.77 s  ClockTime = 1 s

Courant Number mean: 8.845970005e-09 max: 0.6729139444
Time = 0.0003

PIMPLE: iteration 1
DICPCG:  Solving for cellDisplacementx, Initial residual = 0.2000663852, Final residual = 1.117303585e-05, No Iterations 1
DICPCG:  Solving for cellDisplacementy, Initial residual = 0.2000001699, Final residual = 1.027413603e-06, No Iterations 1
Mesh Courant Number mean: 9.350882902e-09 max: 0.6729164766
smoothSolver:  Solving for Ux, Initial residual = 0, Final residual = 0, No Iterations 1
smoothSolver:  Solving for Uy, Initial residual = 0, Final residual = 0, No Iterations 1
FDICPBiCGStab:  Solving for p:  solution singularity
FDICPBiCGStab:  Solving for p:  solution singularity
FDICPBiCGStab:  Solving for p:  solution singularity
time step continuity errors : sum local = 0, global = 0, cumulative = 0
FDICPBiCGStab:  Solving for p:  solution singularity
FDICPBiCGStab:  Solving for p:  solution singularity
FDICPBiCGStab:  Solving for p:  solution singularity
time step continuity errors : sum local = 0, global = 0, cumulative = 0
FDICPBiCGStab:  Solving for p:  solution singularity
FDICPBiCGStab:  Solving for p:  solution singularity
FDICPBiCGStab:  Solving for p:  solution singularity
time step continuity errors : sum local = 0, global = 0, cumulative = 0
PIMPLE: iteration 2
smoothSolver:  Solving for Ux, Initial residual = 0, Final residual = 0, No Iterations 1
smoothSolver:  Solving for Uy, Initial residual = 0, Final residual = 0, No Iterations 1
FDICPBiCGStab:  Solving for p:  solution singularity
FDICPBiCGStab:  Solving for p:  solution singularity
FDICPBiCGStab:  Solving for p:  solution singularity
time step continuity errors : sum local = 0, global = 0, cumulative = 0
FDICPBiCGStab:  Solving for p:  solution singularity
FDICPBiCGStab:  Solving for p:  solution singularity
FDICPBiCGStab:  Solving for p:  solution singularity
time step continuity errors : sum local = 0, global = 0, cumulative = 0
FDICPBiCGStab:  Solving for p:  solution singularity
FDICPBiCGStab:  Solving for p:  solution singularity
FDICPBiCGStab:  Solving for p:  solution singularity
time step continuity errors : sum local = 0, global = 0, cumulative = 0
PIMPLE: iteration 3
smoothSolver:  Solving for Ux, Initial residual = 0, Final residual = 0, No Iterations 1
smoothSolver:  Solving for Uy, Initial residual = 0, Final residual = 0, No Iterations 1
FDICPBiCGStab:  Solving for p:  solution singularity
FDICPBiCGStab:  Solving for p:  solution singularity
FDICPBiCGStab:  Solving for p:  solution singularity
time step continuity errors : sum local = 0, global = 0, cumulative = 0
FDICPBiCGStab:  Solving for p:  solution singularity
FDICPBiCGStab:  Solving for p:  solution singularity
FDICPBiCGStab:  Solving for p:  solution singularity
time step continuity errors : sum local = 0, global = 0, cumulative = 0
FDICPBiCGStab:  Solving for p:  solution singularity
FDICPBiCGStab:  Solving for p:  solution singularity
FDICPBiCGStab:  Solving for p:  solution singularity
time step continuity errors : sum local = 0, global = 0, cumulative = 0
PIMPLE: iteration 4
smoothSolver:  Solving for Ux, Initial residual = 0, Final residual = 0, No Iterations 1
smoothSolver:  Solving for Uy, Initial residual = 0, Final residual = 0, No Iterations 1
FDICPBiCGStab:  Solving for p:  solution singularity
FDICPBiCGStab:  Solving for p:  solution singularity
FDICPBiCGStab:  Solving for p:  solution singularity
time step continuity errors : sum local = 0, global = 0, cumulative = 0
FDICPBiCGStab:  Solving for p:  solution singularity
FDICPBiCGStab:  Solving for p:  solution singularity
FDICPBiCGStab:  Solving for p:  solution singularity
time step continuity errors : sum local = 0, global = 0, cumulative = 0
FDICPBiCGStab:  Solving for p:  solution singularity
FDICPBiCGStab:  Solving for p:  solution singularity
FDICPBiCGStab:  Solving for p:  solution singularity
time step continuity errors : sum local = 0, global = 0, cumulative = 0
ExecutionTime = 1.07 s  ClockTime = 1 s

Courant Number mean: 9.350882902e-09 max: 0.6729164766
Time = 0.0004

PIMPLE: iteration 1
DICPCG:  Solving for cellDisplacementx, Initial residual = 0.1429102288, Final residual = 7.995201062e-06, No Iterations 1
DICPCG:  Solving for cellDisplacementy, Initial residual = 0.1428572951, Final residual = 7.34418475e-07, No Iterations 1
Mesh Courant Number mean: 9.738179227e-09 max: 0.6729186424
smoothSolver:  Solving for Ux, Initial residual = 0, Final residual = 0, No Iterations 1
smoothSolver:  Solving for Uy, Initial residual = 0, Final residual = 0, No Iterations 1
FDICPBiCGStab:  Solving for p:  solution singularity
FDICPBiCGStab:  Solving for p:  solution singularity
FDICPBiCGStab:  Solving for p:  solution singularity
time step continuity errors : sum local = 0, global = 0, cumulative = 0
FDICPBiCGStab:  Solving for p:  solution singularity
FDICPBiCGStab:  Solving for p:  solution singularity
FDICPBiCGStab:  Solving for p:  solution singularity
time step continuity errors : sum local = 0, global = 0, cumulative = 0
FDICPBiCGStab:  Solving for p:  solution singularity
FDICPBiCGStab:  Solving for p:  solution singularity
FDICPBiCGStab:  Solving for p:  solution singularity
time step continuity errors : sum local = 0, global = 0, cumulative = 0
PIMPLE: iteration 2
smoothSolver:  Solving for Ux, Initial residual = 0, Final residual = 0, No Iterations 1
smoothSolver:  Solving for Uy, Initial residual = 0, Final residual = 0, No Iterations 1
FDICPBiCGStab:  Solving for p:  solution singularity
FDICPBiCGStab:  Solving for p:  solution singularity
FDICPBiCGStab:  Solving for p:  solution singularity
time step continuity errors : sum local = 0, global = 0, cumulative = 0
FDICPBiCGStab:  Solving for p:  solution singularity
FDICPBiCGStab:  Solving for p:  solution singularity
FDICPBiCGStab:  Solving for p:  solution singularity
time step continuity errors : sum local = 0, global = 0, cumulative = 0
FDICPBiCGStab:  Solving for p:  solution singularity
FDICPBiCGStab:  Solving for p:  solution singularity
FDICPBiCGStab:  Solving for p:  solution singularity
time step continuity errors : sum local = 0, global = 0, cumulative = 0
PIMPLE: iteration 3
smoothSolver:  Solving for Ux, Initial residual = 0, Final residual = 0, No Iterations 1
smoothSolver:  Solving for Uy, Initial residual = 0, Final residual = 0, No Iterations 1
FDICPBiCGStab:  Solving for p:  solution singularity
FDICPBiCGStab:  Solving for p:  solution singularity
FDICPBiCGStab:  Solving for p:  solution singularity
time step continuity errors : sum local = 0, global = 0, cumulative = 0
FDICPBiCGStab:  Solving for p:  solution singularity
FDICPBiCGStab:  Solving for p:  solution singularity
FDICPBiCGStab:  Solving for p:  solution singularity
time step continuity errors : sum local = 0, global = 0, cumulative = 0
FDICPBiCGStab:  Solving for p:  solution singularity
FDICPBiCGStab:  Solving for p:  solution singularity
FDICPBiCGStab:  Solving for p:  solution singularity
time step continuity errors : sum local = 0, global = 0, cumulative = 0
PIMPLE: iteration 4
smoothSolver:  Solving for Ux, Initial residual = 0, Final residual = 0, No Iterations 1
smoothSolver:  Solving for Uy, Initial residual = 0, Final residual = 0, No Iterations 1
FDICPBiCGStab:  Solving for p:  solution singularity
FDICPBiCGStab:  Solving for p:  solution singularity
FDICPBiCGStab:  Solving for p:  solution singularity
time step continuity errors : sum local = 0, global = 0, cumulative = 0
FDICPBiCGStab:  Solving for p:  solution singularity
FDICPBiCGStab:  Solving for p:  solution singularity
FDICPBiCGStab:  Solving for p:  solution singularity
time step continuity errors : sum local = 0, global = 0, cumulative = 0
FDICPBiCGStab:  Solving for p:  solution singularity
FDICPBiCGStab:  Solving for p:  solution singularity
FDICPBiCGStab:  Solving for p:  solution singularity
time step continuity errors : sum local = 0, global = 0, cumulative = 0
ExecutionTime = 1.37 s  ClockTime = 2 s

Courant Number mean: 9.738179227e-09 max: 0.6729186424
Time = 0.0005

PIMPLE: iteration 1
DICPCG:  Solving for cellDisplacementx, Initial residual = 0.1111552195, Final residual = 6.224698634e-06, No Iterations 1
DICPCG:  Solving for cellDisplacementy, Initial residual = 0.1111112421, Final residual = 5.714915868e-07, No Iterations 1
Mesh Courant Number mean: 1.006876593e-08 max: 0.6729207304
smoothSolver:  Solving for Ux, Initial residual = 0, Final residual = 0, No Iterations 1
smoothSolver:  Solving for Uy, Initial residual = 0, Final residual = 0, No Iterations 1
FDICPBiCGStab:  Solving for p:  solution singularity
FDICPBiCGStab:  Solving for p:  solution singularity
FDICPBiCGStab:  Solving for p:  solution singularity
time step continuity errors : sum local = 0, global = 0, cumulative = 0
FDICPBiCGStab:  Solving for p:  solution singularity
FDICPBiCGStab:  Solving for p:  solution singularity
FDICPBiCGStab:  Solving for p:  solution singularity
time step continuity errors : sum local = 0, global = 0, cumulative = 0
FDICPBiCGStab:  Solving for p:  solution singularity
FDICPBiCGStab:  Solving for p:  solution singularity
FDICPBiCGStab:  Solving for p:  solution singularity
time step continuity errors : sum local = 0, global = 0, cumulative = 0
PIMPLE: iteration 2
smoothSolver:  Solving for Ux, Initial residual = 0, Final residual = 0, No Iterations 1
smoothSolver:  Solving for Uy, Initial residual = 0, Final residual = 0, No Iterations 1
FDICPBiCGStab:  Solving for p:  solution singularity
FDICPBiCGStab:  Solving for p:  solution singularity
FDICPBiCGStab:  Solving for p:  solution singularity
time step continuity errors : sum local = 0, global = 0, cumulative = 0
FDICPBiCGStab:  Solving for p:  solution singularity
FDICPBiCGStab:  Solving for p:  solution singularity
FDICPBiCGStab:  Solving for p:  solution singularity
time step continuity errors : sum local = 0, global = 0, cumulative = 0
FDICPBiCGStab:  Solving for p:  solution singularity
FDICPBiCGStab:  Solving for p:  solution singularity
FDICPBiCGStab:  Solving for p:  solution singularity
time step continuity errors : sum local = 0, global = 0, cumulative = 0
PIMPLE: iteration 3
smoothSolver:  Solving for Ux, Initial residual = 0, Final residual = 0, No Iterations 1
smoothSolver:  Solving for Uy, Initial residual = 0, Final residual = 0, No Iterations 1
FDICPBiCGStab:  Solving for p:  solution singularity
FDICPBiCGStab:  Solving for p:  solution singularity
FDICPBiCGStab:  Solving for p:  solution singularity
time step continuity errors : sum local = 0, global = 0, cumulative = 0
FDICPBiCGStab:  Solving for p:  solution singularity
FDICPBiCGStab:  Solving for p:  solution singularity
FDICPBiCGStab:  Solving for p:  solution singularity
time step continuity errors : sum local = 0, global = 0, cumulative = 0
FDICPBiCGStab:  Solving for p:  solution singularity
FDICPBiCGStab:  Solving for p:  solution singularity
FDICPBiCGStab:  Solving for p:  solution singularity
time step continuity errors : sum local = 0, global = 0, cumulative = 0
PIMPLE: iteration 4
smoothSolver:  Solving for Ux, Initial residual = 0, Final residual = 0, No Iterations 1
smoothSolver:  Solving for Uy, Initial residual = 0, Final residual = 0, No Iterations 1
FDICPBiCGStab:  Solving for p:  solution singularity
FDICPBiCGStab:  Solving for p:  solution singularity
FDICPBiCGStab:  Solving for p:  solution singularity
time step continuity errors : sum local = 0, global = 0, cumulative = 0
FDICPBiCGStab:  Solving for p:  solution singularity
FDICPBiCGStab:  Solving for p:  solution singularity
FDICPBiCGStab:  Solving for p:  solution singularity
time step continuity errors : sum local = 0, global = 0, cumulative = 0
FDICPBiCGStab:  Solving for p:  solution singularity
FDICPBiCGStab:  Solving for p:  solution singularity
FDICPBiCGStab:  Solving for p:  solution singularity
time step continuity errors : sum local = 0, global = 0, cumulative = 0
ExecutionTime = 1.67 s  ClockTime = 2 s

Courant Number mean: 1.006876593e-08 max: 0.6729207304
Time = 0.0006

PIMPLE: iteration 1
DICPCG:  Solving for cellDisplacementx, Initial residual = 0.0909468629, Final residual = 5.096125144e-06, No Iterations 1
DICPCG:  Solving for cellDisplacementy, Initial residual = 0.09090920384, Final residual = 4.677588968e-07, No Iterations 1
Mesh Courant Number mean: 1.036779602e-08 max: 0.6729227883
smoothSolver:  Solving for Ux, Initial residual = 0, Final residual = 0, No Iterations 1
smoothSolver:  Solving for Uy, Initial residual = 0, Final residual = 0, No Iterations 1
FDICPBiCGStab:  Solving for p:  solution singularity
FDICPBiCGStab:  Solving for p:  solution singularity
FDICPBiCGStab:  Solving for p:  solution singularity
time step continuity errors : sum local = 0, global = 0, cumulative = 0
FDICPBiCGStab:  Solving for p:  solution singularity
FDICPBiCGStab:  Solving for p:  solution singularity
FDICPBiCGStab:  Solving for p:  solution singularity
time step continuity errors : sum local = 0, global = 0, cumulative = 0
FDICPBiCGStab:  Solving for p:  solution singularity
FDICPBiCGStab:  Solving for p:  solution singularity
FDICPBiCGStab:  Solving for p:  solution singularity
time step continuity errors : sum local = 0, global = 0, cumulative = 0
PIMPLE: iteration 2
smoothSolver:  Solving for Ux, Initial residual = 0, Final residual = 0, No Iterations 1
smoothSolver:  Solving for Uy, Initial residual = 0, Final residual = 0, No Iterations 1
FDICPBiCGStab:  Solving for p:  solution singularity
FDICPBiCGStab:  Solving for p:  solution singularity
FDICPBiCGStab:  Solving for p:  solution singularity
time step continuity errors : sum local = 0, global = 0, cumulative = 0
FDICPBiCGStab:  Solving for p:  solution singularity
FDICPBiCGStab:  Solving for p:  solution singularity
FDICPBiCGStab:  Solving for p:  solution singularity
time step continuity errors : sum local = 0, global = 0, cumulative = 0
FDICPBiCGStab:  Solving for p:  solution singularity
FDICPBiCGStab:  Solving for p:  solution singularity
FDICPBiCGStab:  Solving for p:  solution singularity
time step continuity errors : sum local = 0, global = 0, cumulative = 0
PIMPLE: iteration 3
smoothSolver:  Solving for Ux, Initial residual = 0, Final residual = 0, No Iterations 1
smoothSolver:  Solving for Uy, Initial residual = 0, Final residual = 0, No Iterations 1
FDICPBiCGStab:  Solving for p:  solution singularity
FDICPBiCGStab:  Solving for p:  solution singularity
FDICPBiCGStab:  Solving for p:  solution singularity
time step continuity errors : sum local = 0, global = 0, cumulative = 0
FDICPBiCGStab:  Solving for p:  solution singularity
FDICPBiCGStab:  Solving for p:  solution singularity
FDICPBiCGStab:  Solving for p:  solution singularity
time step continuity errors : sum local = 0, global = 0, cumulative = 0
FDICPBiCGStab:  Solving for p:  solution singularity
FDICPBiCGStab:  Solving for p:  solution singularity
FDICPBiCGStab:  Solving for p:  solution singularity
time step continuity errors : sum local = 0, global = 0, cumulative = 0
PIMPLE: iteration 4
smoothSolver:  Solving for Ux, Initial residual = 0, Final residual = 0, No Iterations 1
smoothSolver:  Solving for Uy, Initial residual = 0, Final residual = 0, No Iterations 1
FDICPBiCGStab:  Solving for p:  solution singularity
FDICPBiCGStab:  Solving for p:  solution singularity
FDICPBiCGStab:  Solving for p:  solution singularity
time step continuity errors : sum local = 0, global = 0, cumulative = 0
FDICPBiCGStab:  Solving for p:  solution singularity
FDICPBiCGStab:  Solving for p:  solution singularity
FDICPBiCGStab:  Solving for p:  solution singularity
time step continuity errors : sum local = 0, global = 0, cumulative = 0
FDICPBiCGStab:  Solving for p:  solution singularity
FDICPBiCGStab:  Solving for p:  solution singularity
FDICPBiCGStab:  Solving for p:  solution singularity
time step continuity errors : sum local = 0, global = 0, cumulative = 0
ExecutionTime = 1.97 s  ClockTime = 2 s

Courant Number mean: 1.036779602e-08 max: 0.6729227883
Time = 0.0007

PIMPLE: iteration 1
DICPCG:  Solving for cellDisplacementx, Initial residual = 0.07695616844, Final residual = 4.3139411e-06, No Iterations 1
DICPCG:  Solving for cellDisplacementy, Initial residual = 0.076923175, Final residual = 3.95924111e-07, No Iterations 1
Mesh Courant Number mean: 1.064790564e-08 max: 0.6729248308
smoothSolver:  Solving for Ux, Initial residual = 0, Final residual = 0, No Iterations 1
smoothSolver:  Solving for Uy, Initial residual = 0, Final residual = 0, No Iterations 1
FDICPBiCGStab:  Solving for p:  solution singularity
FDICPBiCGStab:  Solving for p:  solution singularity
FDICPBiCGStab:  Solving for p:  solution singularity
time step continuity errors : sum local = 0, global = 0, cumulative = 0
FDICPBiCGStab:  Solving for p:  solution singularity
FDICPBiCGStab:  Solving for p:  solution singularity
FDICPBiCGStab:  Solving for p:  solution singularity
time step continuity errors : sum local = 0, global = 0, cumulative = 0
FDICPBiCGStab:  Solving for p:  solution singularity
FDICPBiCGStab:  Solving for p:  solution singularity
FDICPBiCGStab:  Solving for p:  solution singularity
time step continuity errors : sum local = 0, global = 0, cumulative = 0
PIMPLE: iteration 2
smoothSolver:  Solving for Ux, Initial residual = 0, Final residual = 0, No Iterations 1
smoothSolver:  Solving for Uy, Initial residual = 0, Final residual = 0, No Iterations 1
FDICPBiCGStab:  Solving for p:  solution singularity
FDICPBiCGStab:  Solving for p:  solution singularity
FDICPBiCGStab:  Solving for p:  solution singularity
time step continuity errors : sum local = 0, global = 0, cumulative = 0
FDICPBiCGStab:  Solving for p:  solution singularity
FDICPBiCGStab:  Solving for p:  solution singularity
FDICPBiCGStab:  Solving for p:  solution singularity
time step continuity errors : sum local = 0, global = 0, cumulative = 0
FDICPBiCGStab:  Solving for p:  solution singularity
FDICPBiCGStab:  Solving for p:  solution singularity
FDICPBiCGStab:  Solving for p:  solution singularity
time step continuity errors : sum local = 0, global = 0, cumulative = 0
PIMPLE: iteration 3
smoothSolver:  Solving for Ux, Initial residual = 0, Final residual = 0, No Iterations 1
smoothSolver:  Solving for Uy, Initial residual = 0, Final residual = 0, No Iterations 1
FDICPBiCGStab:  Solving for p:  solution singularity
FDICPBiCGStab:  Solving for p:  solution singularity
FDICPBiCGStab:  Solving for p:  solution singularity
time step continuity errors : sum local = 0, global = 0, cumulative = 0
FDICPBiCGStab:  Solving for p:  solution singularity
FDICPBiCGStab:  Solving for p:  solution singularity
FDICPBiCGStab:  Solving for p:  solution singularity
time step continuity errors : sum local = 0, global = 0, cumulative = 0
FDICPBiCGStab:  Solving for p:  solution singularity
FDICPBiCGStab:  Solving for p:  solution singularity
FDICPBiCGStab:  Solving for p:  solution singularity
time step continuity errors : sum local = 0, global = 0, cumulative = 0
PIMPLE: iteration 4
smoothSolver:  Solving for Ux, Initial residual = 0, Final residual = 0, No Iterations 1
smoothSolver:  Solving for Uy, Initial residual = 0, Final residual = 0, No Iterations 1
FDICPBiCGStab:  Solving for p:  solution singularity
FDICPBiCGStab:  Solving for p:  solution singularity
FDICPBiCGStab:  Solving for p:  solution singularity
time step continuity errors : sum local = 0, global = 0, cumulative = 0
FDICPBiCGStab:  Solving for p:  solution singularity
FDICPBiCGStab:  Solving for p:  solution singularity
FDICPBiCGStab:  Solving for p:  solution singularity
time step continuity errors : sum local = 0, global = 0, cumulative = 0
FDICPBiCGStab:  Solving for p:  solution singularity
FDICPBiCGStab:  Solving for p:  solution singularity
FDICPBiCGStab:  Solving for p:  solution singularity
time step continuity errors : sum local = 0, global = 0, cumulative = 0
ExecutionTime = 2.27 s  ClockTime = 3 s

Courant Number mean: 1.064790564e-08 max: 0.6729248308
Time = 0.0008

PIMPLE: iteration 1
DICPCG:  Solving for cellDisplacementx, Initial residual = 0.06669616887, Final residual = 3.739891172e-06, No Iterations 1
DICPCG:  Solving for cellDisplacementy, Initial residual = 0.06666675245, Final residual = 3.432357748e-07, No Iterations 1
Mesh Courant Number mean: 1.091625841e-08 max: 0.6729268643
smoothSolver:  Solving for Ux, Initial residual = 0, Final residual = 0, No Iterations 1
smoothSolver:  Solving for Uy, Initial residual = 0, Final residual = 0, No Iterations 1
FDICPBiCGStab:  Solving for p:  solution singularity
FDICPBiCGStab:  Solving for p:  solution singularity
FDICPBiCGStab:  Solving for p:  solution singularity
time step continuity errors : sum local = 0, global = 0, cumulative = 0
FDICPBiCGStab:  Solving for p:  solution singularity
FDICPBiCGStab:  Solving for p:  solution singularity
FDICPBiCGStab:  Solving for p:  solution singularity
time step continuity errors : sum local = 0, global = 0, cumulative = 0
FDICPBiCGStab:  Solving for p:  solution singularity
FDICPBiCGStab:  Solving for p:  solution singularity
FDICPBiCGStab:  Solving for p:  solution singularity
time step continuity errors : sum local = 0, global = 0, cumulative = 0
PIMPLE: iteration 2
smoothSolver:  Solving for Ux, Initial residual = 0, Final residual = 0, No Iterations 1
smoothSolver:  Solving for Uy, Initial residual = 0, Final residual = 0, No Iterations 1
FDICPBiCGStab:  Solving for p:  solution singularity
FDICPBiCGStab:  Solving for p:  solution singularity
FDICPBiCGStab:  Solving for p:  solution singularity
time step continuity errors : sum local = 0, global = 0, cumulative = 0
FDICPBiCGStab:  Solving for p:  solution singularity
FDICPBiCGStab:  Solving for p:  solution singularity
FDICPBiCGStab:  Solving for p:  solution singularity
time step continuity errors : sum local = 0, global = 0, cumulative = 0
FDICPBiCGStab:  Solving for p:  solution singularity
FDICPBiCGStab:  Solving for p:  solution singularity
FDICPBiCGStab:  Solving for p:  solution singularity
time step continuity errors : sum local = 0, global = 0, cumulative = 0
PIMPLE: iteration 3
smoothSolver:  Solving for Ux, Initial residual = 0, Final residual = 0, No Iterations 1
smoothSolver:  Solving for Uy, Initial residual = 0, Final residual = 0, No Iterations 1
FDICPBiCGStab:  Solving for p:  solution singularity
FDICPBiCGStab:  Solving for p:  solution singularity
FDICPBiCGStab:  Solving for p:  solution singularity
time step continuity errors : sum local = 0, global = 0, cumulative = 0
FDICPBiCGStab:  Solving for p:  solution singularity
FDICPBiCGStab:  Solving for p:  solution singularity
FDICPBiCGStab:  Solving for p:  solution singularity
time step continuity errors : sum local = 0, global = 0, cumulative = 0
FDICPBiCGStab:  Solving for p:  solution singularity
FDICPBiCGStab:  Solving for p:  solution singularity
FDICPBiCGStab:  Solving for p:  solution singularity
time step continuity errors : sum local = 0, global = 0, cumulative = 0
PIMPLE: iteration 4
smoothSolver:  Solving for Ux, Initial residual = 0, Final residual = 0, No Iterations 1
smoothSolver:  Solving for Uy, Initial residual = 0, Final residual = 0, No Iterations 1
FDICPBiCGStab:  Solving for p:  solution singularity
FDICPBiCGStab:  Solving for p:  solution singularity
FDICPBiCGStab:  Solving for p:  solution singularity
time step continuity errors : sum local = 0, global = 0, cumulative = 0
FDICPBiCGStab:  Solving for p:  solution singularity
FDICPBiCGStab:  Solving for p:  solution singularity
FDICPBiCGStab:  Solving for p:  solution singularity
time step continuity errors : sum local = 0, global = 0, cumulative = 0
FDICPBiCGStab:  Solving for p:  solution singularity
FDICPBiCGStab:  Solving for p:  solution singularity
FDICPBiCGStab:  Solving for p:  solution singularity
time step continuity errors : sum local = 0, global = 0, cumulative = 0
ExecutionTime = 2.57 s  ClockTime = 3 s

Courant Number mean: 1.091625841e-08 max: 0.6729268643
Time = 0.0009

PIMPLE: iteration 1
DICPCG:  Solving for cellDisplacementx, Initial residual = 0.05885019554, Final residual = 3.300657444e-06, No Iterations 1
DICPCG:  Solving for cellDisplacementy, Initial residual = 0.05882360485, Final residual = 3.02940643e-07, No Iterations 1
Mesh Courant Number mean: 1.117713337e-08 max: 0.6729288919
smoothSolver:  Solving for Ux, Initial residual = 0, Final residual = 0, No Iterations 1
smoothSolver:  Solving for Uy, Initial residual = 0, Final residual = 0, No Iterations 1
FDICPBiCGStab:  Solving for p:  solution singularity
FDICPBiCGStab:  Solving for p:  solution singularity
FDICPBiCGStab:  Solving for p:  solution singularity
time step continuity errors : sum local = 0, global = 0, cumulative = 0
FDICPBiCGStab:  Solving for p:  solution singularity
FDICPBiCGStab:  Solving for p:  solution singularity
FDICPBiCGStab:  Solving for p:  solution singularity
time step continuity errors : sum local = 0, global = 0, cumulative = 0
FDICPBiCGStab:  Solving for p:  solution singularity
FDICPBiCGStab:  Solving for p:  solution singularity
FDICPBiCGStab:  Solving for p:  solution singularity
time step continuity errors : sum local = 0, global = 0, cumulative = 0
PIMPLE: iteration 2
smoothSolver:  Solving for Ux, Initial residual = 0, Final residual = 0, No Iterations 1
smoothSolver:  Solving for Uy, Initial residual = 0, Final residual = 0, No Iterations 1
FDICPBiCGStab:  Solving for p:  solution singularity
FDICPBiCGStab:  Solving for p:  solution singularity
FDICPBiCGStab:  Solving for p:  solution singularity
time step continuity errors : sum local = 0, global = 0, cumulative = 0
FDICPBiCGStab:  Solving for p:  solution singularity
FDICPBiCGStab:  Solving for p:  solution singularity
FDICPBiCGStab:  Solving for p:  solution singularity
time step continuity errors : sum local = 0, global = 0, cumulative = 0
FDICPBiCGStab:  Solving for p:  solution singularity
FDICPBiCGStab:  Solving for p:  solution singularity
FDICPBiCGStab:  Solving for p:  solution singularity
time step continuity errors : sum local = 0, global = 0, cumulative = 0
PIMPLE: iteration 3
smoothSolver:  Solving for Ux, Initial residual = 0, Final residual = 0, No Iterations 1
smoothSolver:  Solving for Uy, Initial residual = 0, Final residual = 0, No Iterations 1
FDICPBiCGStab:  Solving for p:  solution singularity
FDICPBiCGStab:  Solving for p:  solution singularity
FDICPBiCGStab:  Solving for p:  solution singularity
time step continuity errors : sum local = 0, global = 0, cumulative = 0
FDICPBiCGStab:  Solving for p:  solution singularity
FDICPBiCGStab:  Solving for p:  solution singularity
FDICPBiCGStab:  Solving for p:  solution singularity
time step continuity errors : sum local = 0, global = 0, cumulative = 0
FDICPBiCGStab:  Solving for p:  solution singularity
FDICPBiCGStab:  Solving for p:  solution singularity
FDICPBiCGStab:  Solving for p:  solution singularity
time step continuity errors : sum local = 0, global = 0, cumulative = 0
PIMPLE: iteration 4
smoothSolver:  Solving for Ux, Initial residual = 0, Final residual = 0, No Iterations 1
smoothSolver:  Solving for Uy, Initial residual = 0, Final residual = 0, No Iterations 1
FDICPBiCGStab:  Solving for p:  solution singularity
FDICPBiCGStab:  Solving for p:  solution singularity
FDICPBiCGStab:  Solving for p:  solution singularity
time step continuity errors : sum local = 0, global = 0, cumulative = 0
FDICPBiCGStab:  Solving for p:  solution singularity
FDICPBiCGStab:  Solving for p:  solution singularity
FDICPBiCGStab:  Solving for p:  solution singularity
time step continuity errors : sum local = 0, global = 0, cumulative = 0
FDICPBiCGStab:  Solving for p:  solution singularity
FDICPBiCGStab:  Solving for p:  solution singularity
FDICPBiCGStab:  Solving for p:  solution singularity
time step continuity errors : sum local = 0, global = 0, cumulative = 0
ExecutionTime = 2.87 s  ClockTime = 3 s

Courant Number mean: 1.117713337e-08 max: 0.6729288919
Time = 0.001

PIMPLE: iteration 1
DICPCG:  Solving for cellDisplacementx, Initial residual = 0.05265594863, Final residual = 2.953739721e-06, No Iterations 1
DICPCG:  Solving for cellDisplacementy, Initial residual = 0.05263164551, Final residual = 2.711265208e-07, No Iterations 1
Mesh Courant Number mean: 1.143332127e-08 max: 0.6729309157
smoothSolver:  Solving for Ux, Initial residual = 0, Final residual = 0, No Iterations 1
smoothSolver:  Solving for Uy, Initial residual = 0, Final residual = 0, No Iterations 1
FDICPBiCGStab:  Solving for p:  solution singularity
FDICPBiCGStab:  Solving for p:  solution singularity
FDICPBiCGStab:  Solving for p:  solution singularity
time step continuity errors : sum local = 0, global = 0, cumulative = 0
FDICPBiCGStab:  Solving for p:  solution singularity
FDICPBiCGStab:  Solving for p:  solution singularity
FDICPBiCGStab:  Solving for p:  solution singularity
time step continuity errors : sum local = 0, global = 0, cumulative = 0
FDICPBiCGStab:  Solving for p:  solution singularity
FDICPBiCGStab:  Solving for p:  solution singularity
FDICPBiCGStab:  Solving for p:  solution singularity
time step continuity errors : sum local = 0, global = 0, cumulative = 0
PIMPLE: iteration 2
smoothSolver:  Solving for Ux, Initial residual = 0, Final residual = 0, No Iterations 1
smoothSolver:  Solving for Uy, Initial residual = 0, Final residual = 0, No Iterations 1
FDICPBiCGStab:  Solving for p:  solution singularity
FDICPBiCGStab:  Solving for p:  solution singularity
FDICPBiCGStab:  Solving for p:  solution singularity
time step continuity errors : sum local = 0, global = 0, cumulative = 0
FDICPBiCGStab:  Solving for p:  solution singularity
FDICPBiCGStab:  Solving for p:  solution singularity
FDICPBiCGStab:  Solving for p:  solution singularity
time step continuity errors : sum local = 0, global = 0, cumulative = 0
FDICPBiCGStab:  Solving for p:  solution singularity
FDICPBiCGStab:  Solving for p:  solution singularity
FDICPBiCGStab:  Solving for p:  solution singularity
time step continuity errors : sum local = 0, global = 0, cumulative = 0
PIMPLE: iteration 3
smoothSolver:  Solving for Ux, Initial residual = 0, Final residual = 0, No Iterations 1
smoothSolver:  Solving for Uy, Initial residual = 0, Final residual = 0, No Iterations 1
FDICPBiCGStab:  Solving for p:  solution singularity
FDICPBiCGStab:  Solving for p:  solution singularity
FDICPBiCGStab:  Solving for p:  solution singularity
time step continuity errors : sum local = 0, global = 0, cumulative = 0
FDICPBiCGStab:  Solving for p:  solution singularity
FDICPBiCGStab:  Solving for p:  solution singularity
FDICPBiCGStab:  Solving for p:  solution singularity
time step continuity errors : sum local = 0, global = 0, cumulative = 0
FDICPBiCGStab:  Solving for p:  solution singularity
FDICPBiCGStab:  Solving for p:  solution singularity
FDICPBiCGStab:  Solving for p:  solution singularity
time step continuity errors : sum local = 0, global = 0, cumulative = 0
PIMPLE: iteration 4
smoothSolver:  Solving for Ux, Initial residual = 0, Final residual = 0, No Iterations 1
smoothSolver:  Solving for Uy, Initial residual = 0, Final residual = 0, No Iterations 1
FDICPBiCGStab:  Solving for p:  solution singularity
FDICPBiCGStab:  Solving for p:  solution singularity
FDICPBiCGStab:  Solving for p:  solution singularity
time step continuity errors : sum local = 0, global = 0, cumulative = 0
FDICPBiCGStab:  Solving for p:  solution singularity
FDICPBiCGStab:  Solving for p:  solution singularity
FDICPBiCGStab:  Solving for p:  solution singularity
time step continuity errors : sum local = 0, global = 0, cumulative = 0
FDICPBiCGStab:  Solving for p:  solution singularity
FDICPBiCGStab:  Solving for p:  solution singularity
FDICPBiCGStab:  Solving for p:  solution singularity
time step continuity errors : sum local = 0, global = 0, cumulative = 0
ExecutionTime = 3.17 s  ClockTime = 4 s

Courant Number mean: 1.143332127e-08 max: 0.6729309157
Time = 0.0011

PIMPLE: iteration 1
DICPCG:  Solving for cellDisplacementx, Initial residual = 0.04764151995, Final residual = 2.672803173e-06, No Iterations 1
DICPCG:  Solving for cellDisplacementy, Initial residual = 0.04761914686, Final residual = 2.453770642e-07, No Iterations 1
Mesh Courant Number mean: 1.168674804e-08 max: 0.6729329365
smoothSolver:  Solving for Ux, Initial residual = 0, Final residual = 0, No Iterations 1
smoothSolver:  Solving for Uy, Initial residual = 0, Final residual = 0, No Iterations 1
FDICPBiCGStab:  Solving for p:  solution singularity
FDICPBiCGStab:  Solving for p:  solution singularity
FDICPBiCGStab:  Solving for p:  solution singularity
time step continuity errors : sum local = 0, global = 0, cumulative = 0
FDICPBiCGStab:  Solving for p:  solution singularity
FDICPBiCGStab:  Solving for p:  solution singularity
FDICPBiCGStab:  Solving for p:  solution singularity
time step continuity errors : sum local = 0, global = 0, cumulative = 0
FDICPBiCGStab:  Solving for p:  solution singularity
FDICPBiCGStab:  Solving for p:  solution singularity
FDICPBiCGStab:  Solving for p:  solution singularity
time step continuity errors : sum local = 0, global = 0, cumulative = 0
PIMPLE: iteration 2
smoothSolver:  Solving for Ux, Initial residual = 0, Final residual = 0, No Iterations 1
smoothSolver:  Solving for Uy, Initial residual = 0, Final residual = 0, No Iterations 1
FDICPBiCGStab:  Solving for p:  solution singularity
FDICPBiCGStab:  Solving for p:  solution singularity
FDICPBiCGStab:  Solving for p:  solution singularity
time step continuity errors : sum local = 0, global = 0, cumulative = 0
FDICPBiCGStab:  Solving for p:  solution singularity
FDICPBiCGStab:  Solving for p:  solution singularity
FDICPBiCGStab:  Solving for p:  solution singularity
time step continuity errors : sum local = 0, global = 0, cumulative = 0
FDICPBiCGStab:  Solving for p:  solution singularity
FDICPBiCGStab:  Solving for p:  solution singularity
FDICPBiCGStab:  Solving for p:  solution singularity
time step continuity errors : sum local = 0, global = 0, cumulative = 0
PIMPLE: iteration 3
smoothSolver:  Solving for Ux, Initial residual = 0, Final residual = 0, No Iterations 1
smoothSolver:  Solving for Uy, Initial residual = 0, Final residual = 0, No Iterations 1
FDICPBiCGStab:  Solving for p:  solution singularity
FDICPBiCGStab:  Solving for p:  solution singularity
FDICPBiCGStab:  Solving for p:  solution singularity
time step continuity errors : sum local = 0, global = 0, cumulative = 0
FDICPBiCGStab:  Solving for p:  solution singularity
FDICPBiCGStab:  Solving for p:  solution singularity
FDICPBiCGStab:  Solving for p:  solution singularity
time step continuity errors : sum local = 0, global = 0, cumulative = 0
FDICPBiCGStab:  Solving for p:  solution singularity
FDICPBiCGStab:  Solving for p:  solution singularity
FDICPBiCGStab:  Solving for p:  solution singularity
time step continuity errors : sum local = 0, global = 0, cumulative = 0
PIMPLE: iteration 4
smoothSolver:  Solving for Ux, Initial residual = 0, Final residual = 0, No Iterations 1
smoothSolver:  Solving for Uy, Initial residual = 0, Final residual = 0, No Iterations 1
FDICPBiCGStab:  Solving for p:  solution singularity
FDICPBiCGStab:  Solving for p:  solution singularity
FDICPBiCGStab:  Solving for p:  solution singularity
time step continuity errors : sum local = 0, global = 0, cumulative = 0
FDICPBiCGStab:  Solving for p:  solution singularity
FDICPBiCGStab:  Solving for p:  solution singularity
FDICPBiCGStab:  Solving for p:  solution singularity
time step continuity errors : sum local = 0, global = 0, cumulative = 0
FDICPBiCGStab:  Solving for p:  solution singularity
FDICPBiCGStab:  Solving for p:  solution singularity
FDICPBiCGStab:  Solving for p:  solution singularity
time step continuity errors : sum local = 0, global = 0, cumulative = 0
ExecutionTime = 3.47 s  ClockTime = 4 s

Courant Number mean: 1.168674804e-08 max: 0.6729329365
Time = 0.0012

PIMPLE: iteration 1
DICPCG:  Solving for cellDisplacementx, Initial residual = 0.04349913924, Final residual = 2.440659614e-06, No Iterations 1
DICPCG:  Solving for cellDisplacementy, Initial residual = 0.04347844092, Final residual = 2.241114676e-07, No Iterations 1
Mesh Courant Number mean: 1.193879946e-08 max: 0.6729349552
smoothSolver:  Solving for Ux, Initial residual = 0, Final residual = 0, No Iterations 1
smoothSolver:  Solving for Uy, Initial residual = 0, Final residual = 0, No Iterations 1
FDICPBiCGStab:  Solving for p:  solution singularity
FDICPBiCGStab:  Solving for p:  solution singularity
FDICPBiCGStab:  Solving for p:  solution singularity
time step continuity errors : sum local = 0, global = 0, cumulative = 0
FDICPBiCGStab:  Solving for p:  solution singularity
FDICPBiCGStab:  Solving for p:  solution singularity
FDICPBiCGStab:  Solving for p:  solution singularity
time step continuity errors : sum local = 0, global = 0, cumulative = 0
FDICPBiCGStab:  Solving for p:  solution singularity
FDICPBiCGStab:  Solving for p:  solution singularity
FDICPBiCGStab:  Solving for p:  solution singularity
time step continuity errors : sum local = 0, global = 0, cumulative = 0
PIMPLE: iteration 2
smoothSolver:  Solving for Ux, Initial residual = 0, Final residual = 0, No Iterations 1
smoothSolver:  Solving for Uy, Initial residual = 0, Final residual = 0, No Iterations 1
FDICPBiCGStab:  Solving for p:  solution singularity
FDICPBiCGStab:  Solving for p:  solution singularity
FDICPBiCGStab:  Solving for p:  solution singularity
time step continuity errors : sum local = 0, global = 0, cumulative = 0
FDICPBiCGStab:  Solving for p:  solution singularity
FDICPBiCGStab:  Solving for p:  solution singularity
FDICPBiCGStab:  Solving for p:  solution singularity
time step continuity errors : sum local = 0, global = 0, cumulative = 0
FDICPBiCGStab:  Solving for p:  solution singularity
FDICPBiCGStab:  Solving for p:  solution singularity
FDICPBiCGStab:  Solving for p:  solution singularity
time step continuity errors : sum local = 0, global = 0, cumulative = 0
PIMPLE: iteration 3
smoothSolver:  Solving for Ux, Initial residual = 0, Final residual = 0, No Iterations 1
smoothSolver:  Solving for Uy, Initial residual = 0, Final residual = 0, No Iterations 1
FDICPBiCGStab:  Solving for p:  solution singularity
FDICPBiCGStab:  Solving for p:  solution singularity
FDICPBiCGStab:  Solving for p:  solution singularity
time step continuity errors : sum local = 0, global = 0, cumulative = 0
FDICPBiCGStab:  Solving for p:  solution singularity
FDICPBiCGStab:  Solving for p:  solution singularity
FDICPBiCGStab:  Solving for p:  solution singularity
time step continuity errors : sum local = 0, global = 0, cumulative = 0
FDICPBiCGStab:  Solving for p:  solution singularity
FDICPBiCGStab:  Solving for p:  solution singularity
FDICPBiCGStab:  Solving for p:  solution singularity
time step continuity errors : sum local = 0, global = 0, cumulative = 0
PIMPLE: iteration 4
smoothSolver:  Solving for Ux, Initial residual = 0, Final residual = 0, No Iterations 1
smoothSolver:  Solving for Uy, Initial residual = 0, Final residual = 0, No Iterations 1
FDICPBiCGStab:  Solving for p:  solution singularity
FDICPBiCGStab:  Solving for p:  solution singularity
FDICPBiCGStab:  Solving for p:  solution singularity
time step continuity errors : sum local = 0, global = 0, cumulative = 0
FDICPBiCGStab:  Solving for p:  solution singularity
FDICPBiCGStab:  Solving for p:  solution singularity
FDICPBiCGStab:  Solving for p:  solution singularity
time step continuity errors : sum local = 0, global = 0, cumulative = 0
FDICPBiCGStab:  Solving for p:  solution singularity
FDICPBiCGStab:  Solving for p:  solution singularity
FDICPBiCGStab:  Solving for p:  solution singularity
time step continuity errors : sum local = 0, global = 0, cumulative = 0
ExecutionTime = 3.77 s  ClockTime = 4 s

Courant Number mean: 1.193879946e-08 max: 0.6729349552
Time = 0.0013

PIMPLE: iteration 1
DICPCG:  Solving for cellDisplacementx, Initial residual = 0.04001952007, Final residual = 2.245613933e-06, No Iterations 1
DICPCG:  Solving for cellDisplacementy, Initial residual = 0.04000024756, Final residual = 2.062508794e-07, No Iterations 1
Mesh Courant Number mean: 1.219053385e-08 max: 0.6729369724
smoothSolver:  Solving for Ux, Initial residual = 0, Final residual = 0, No Iterations 1
smoothSolver:  Solving for Uy, Initial residual = 0, Final residual = 0, No Iterations 1
FDICPBiCGStab:  Solving for p:  solution singularity
FDICPBiCGStab:  Solving for p:  solution singularity
FDICPBiCGStab:  Solving for p:  solution singularity
time step continuity errors : sum local = 0, global = 0, cumulative = 0
FDICPBiCGStab:  Solving for p:  solution singularity
FDICPBiCGStab:  Solving for p:  solution singularity
FDICPBiCGStab:  Solving for p:  solution singularity
time step continuity errors : sum local = 0, global = 0, cumulative = 0
FDICPBiCGStab:  Solving for p:  solution singularity
FDICPBiCGStab:  Solving for p:  solution singularity
FDICPBiCGStab:  Solving for p:  solution singularity
time step continuity errors : sum local = 0, global = 0, cumulative = 0
PIMPLE: iteration 2
smoothSolver:  Solving for Ux, Initial residual = 0, Final residual = 0, No Iterations 1
smoothSolver:  Solving for Uy, Initial residual = 0, Final residual = 0, No Iterations 1
FDICPBiCGStab:  Solving for p:  solution singularity
FDICPBiCGStab:  Solving for p:  solution singularity
FDICPBiCGStab:  Solving for p:  solution singularity
time step continuity errors : sum local = 0, global = 0, cumulative = 0
FDICPBiCGStab:  Solving for p:  solution singularity
FDICPBiCGStab:  Solving for p:  solution singularity
FDICPBiCGStab:  Solving for p:  solution singularity
time step continuity errors : sum local = 0, global = 0, cumulative = 0
FDICPBiCGStab:  Solving for p:  solution singularity
FDICPBiCGStab:  Solving for p:  solution singularity
FDICPBiCGStab:  Solving for p:  solution singularity
time step continuity errors : sum local = 0, global = 0, cumulative = 0
PIMPLE: iteration 3
smoothSolver:  Solving for Ux, Initial residual = 0, Final residual = 0, No Iterations 1
smoothSolver:  Solving for Uy, Initial residual = 0, Final residual = 0, No Iterations 1
FDICPBiCGStab:  Solving for p:  solution singularity
FDICPBiCGStab:  Solving for p:  solution singularity
FDICPBiCGStab:  Solving for p:  solution singularity
time step continuity errors : sum local = 0, global = 0, cumulative = 0
FDICPBiCGStab:  Solving for p:  solution singularity
FDICPBiCGStab:  Solving for p:  solution singularity
FDICPBiCGStab:  Solving for p:  solution singularity
time step continuity errors : sum local = 0, global = 0, cumulative = 0
FDICPBiCGStab:  Solving for p:  solution singularity
FDICPBiCGStab:  Solving for p:  solution singularity
FDICPBiCGStab:  Solving for p:  solution singularity
time step continuity errors : sum local = 0, global = 0, cumulative = 0
PIMPLE: iteration 4
smoothSolver:  Solving for Ux, Initial residual = 0, Final residual = 0, No Iterations 1
smoothSolver:  Solving for Uy, Initial residual = 0, Final residual = 0, No Iterations 1
FDICPBiCGStab:  Solving for p:  solution singularity
FDICPBiCGStab:  Solving for p:  solution singularity
FDICPBiCGStab:  Solving for p:  solution singularity
time step continuity errors : sum local = 0, global = 0, cumulative = 0
FDICPBiCGStab:  Solving for p:  solution singularity
FDICPBiCGStab:  Solving for p:  solution singularity
FDICPBiCGStab:  Solving for p:  solution singularity
time step continuity errors : sum local = 0, global = 0, cumulative = 0
FDICPBiCGStab:  Solving for p:  solution singularity
FDICPBiCGStab:  Solving for p:  solution singularity
FDICPBiCGStab:  Solving for p:  solution singularity
time step continuity errors : sum local = 0, global = 0, cumulative = 0
ExecutionTime = 4.07 s  ClockTime = 4 s

Courant Number mean: 1.219053385e-08 max: 0.6729369724
Time = 0.0014

PIMPLE: iteration 1
DICPCG:  Solving for cellDisplacementx, Initial residual = 0.0370553854, Final residual = 2.079431945e-06, No Iterations 1
DICPCG:  Solving for cellDisplacementy, Initial residual = 0.03703734176, Final residual = 1.910383002e-07, No Iterations 1
Mesh Courant Number mean: 1.244283092e-08 max: 0.6729389882
smoothSolver:  Solving for Ux, Initial residual = 0, Final residual = 0, No Iterations 1
smoothSolver:  Solving for Uy, Initial residual = 0, Final residual = 0, No Iterations 1
FDICPBiCGStab:  Solving for p:  solution singularity
FDICPBiCGStab:  Solving for p:  solution singularity
FDICPBiCGStab:  Solving for p:  solution singularity
time step continuity errors : sum local = 0, global = 0, cumulative = 0
FDICPBiCGStab:  Solving for p:  solution singularity
FDICPBiCGStab:  Solving for p:  solution singularity
FDICPBiCGStab:  Solving for p:  solution singularity
time step continuity errors : sum local = 0, global = 0, cumulative = 0
FDICPBiCGStab:  Solving for p:  solution singularity
FDICPBiCGStab:  Solving for p:  solution singularity
FDICPBiCGStab:  Solving for p:  solution singularity
time step continuity errors : sum local = 0, global = 0, cumulative = 0
PIMPLE: iteration 2
smoothSolver:  Solving for Ux, Initial residual = 0, Final residual = 0, No Iterations 1
smoothSolver:  Solving for Uy, Initial residual = 0, Final residual = 0, No Iterations 1
FDICPBiCGStab:  Solving for p:  solution singularity
FDICPBiCGStab:  Solving for p:  solution singularity
FDICPBiCGStab:  Solving for p:  solution singularity
time step continuity errors : sum local = 0, global = 0, cumulative = 0
FDICPBiCGStab:  Solving for p:  solution singularity
FDICPBiCGStab:  Solving for p:  solution singularity
FDICPBiCGStab:  Solving for p:  solution singularity
time step continuity errors : sum local = 0, global = 0, cumulative = 0
FDICPBiCGStab:  Solving for p:  solution singularity
FDICPBiCGStab:  Solving for p:  solution singularity
FDICPBiCGStab:  Solving for p:  solution singularity
time step continuity errors : sum local = 0, global = 0, cumulative = 0
PIMPLE: iteration 3
smoothSolver:  Solving for Ux, Initial residual = 0, Final residual = 0, No Iterations 1
smoothSolver:  Solving for Uy, Initial residual = 0, Final residual = 0, No Iterations 1
FDICPBiCGStab:  Solving for p:  solution singularity
FDICPBiCGStab:  Solving for p:  solution singularity
FDICPBiCGStab:  Solving for p:  solution singularity
time step continuity errors : sum local = 0, global = 0, cumulative = 0
FDICPBiCGStab:  Solving for p:  solution singularity
FDICPBiCGStab:  Solving for p:  solution singularity
FDICPBiCGStab:  Solving for p:  solution singularity
time step continuity errors : sum local = 0, global = 0, cumulative = 0
FDICPBiCGStab:  Solving for p:  solution singularity
FDICPBiCGStab:  Solving for p:  solution singularity
FDICPBiCGStab:  Solving for p:  solution singularity
time step continuity errors : sum local = 0, global = 0, cumulative = 0
PIMPLE: iteration 4
smoothSolver:  Solving for Ux, Initial residual = 0, Final residual = 0, No Iterations 1
smoothSolver:  Solving for Uy, Initial residual = 0, Final residual = 0, No Iterations 1
FDICPBiCGStab:  Solving for p:  solution singularity
FDICPBiCGStab:  Solving for p:  solution singularity
FDICPBiCGStab:  Solving for p:  solution singularity
time step continuity errors : sum local = 0, global = 0, cumulative = 0
FDICPBiCGStab:  Solving for p:  solution singularity
FDICPBiCGStab:  Solving for p:  solution singularity
FDICPBiCGStab:  Solving for p:  solution singularity
time step continuity errors : sum local = 0, global = 0, cumulative = 0
FDICPBiCGStab:  Solving for p:  solution singularity
FDICPBiCGStab:  Solving for p:  solution singularity
FDICPBiCGStab:  Solving for p:  solution singularity
time step continuity errors : sum local = 0, global = 0, cumulative = 0
ExecutionTime = 4.37 s  ClockTime = 5 s

Courant Number mean: 1.244283092e-08 max: 0.6729389882
Time = 0.0015

PIMPLE: iteration 1
DICPCG:  Solving for cellDisplacementx, Initial residual = 0.03450008563, Final residual = 1.936148391e-06, No Iterations 1
DICPCG:  Solving for cellDisplacementy, Initial residual = 0.03448311233, Final residual = 1.779264692e-07, No Iterations 1
Mesh Courant Number mean: 1.26964522e-08 max: 0.6729410031
smoothSolver:  Solving for Ux, Initial residual = 0, Final residual = 0, No Iterations 1
smoothSolver:  Solving for Uy, Initial residual = 0, Final residual = 0, No Iterations 1
FDICPBiCGStab:  Solving for p:  solution singularity
FDICPBiCGStab:  Solving for p:  solution singularity
FDICPBiCGStab:  Solving for p:  solution singularity
time step continuity errors : sum local = 0, global = 0, cumulative = 0
FDICPBiCGStab:  Solving for p:  solution singularity
FDICPBiCGStab:  Solving for p:  solution singularity
FDICPBiCGStab:  Solving for p:  solution singularity
time step continuity errors : sum local = 0, global = 0, cumulative = 0
FDICPBiCGStab:  Solving for p:  solution singularity
FDICPBiCGStab:  Solving for p:  solution singularity
FDICPBiCGStab:  Solving for p:  solution singularity
time step continuity errors : sum local = 0, global = 0, cumulative = 0
PIMPLE: iteration 2
smoothSolver:  Solving for Ux, Initial residual = 0, Final residual = 0, No Iterations 1
smoothSolver:  Solving for Uy, Initial residual = 0, Final residual = 0, No Iterations 1
FDICPBiCGStab:  Solving for p:  solution singularity
FDICPBiCGStab:  Solving for p:  solution singularity
FDICPBiCGStab:  Solving for p:  solution singularity
time step continuity errors : sum local = 0, global = 0, cumulative = 0
FDICPBiCGStab:  Solving for p:  solution singularity
FDICPBiCGStab:  Solving for p:  solution singularity
FDICPBiCGStab:  Solving for p:  solution singularity
time step continuity errors : sum local = 0, global = 0, cumulative = 0
FDICPBiCGStab:  Solving for p:  solution singularity
FDICPBiCGStab:  Solving for p:  solution singularity
FDICPBiCGStab:  Solving for p:  solution singularity
time step continuity errors : sum local = 0, global = 0, cumulative = 0
PIMPLE: iteration 3
smoothSolver:  Solving for Ux, Initial residual = 0, Final residual = 0, No Iterations 1
smoothSolver:  Solving for Uy, Initial residual = 0, Final residual = 0, No Iterations 1
FDICPBiCGStab:  Solving for p:  solution singularity
FDICPBiCGStab:  Solving for p:  solution singularity
FDICPBiCGStab:  Solving for p:  solution singularity
time step continuity errors : sum local = 0, global = 0, cumulative = 0
FDICPBiCGStab:  Solving for p:  solution singularity
FDICPBiCGStab:  Solving for p:  solution singularity
FDICPBiCGStab:  Solving for p:  solution singularity
time step continuity errors : sum local = 0, global = 0, cumulative = 0
FDICPBiCGStab:  Solving for p:  solution singularity
FDICPBiCGStab:  Solving for p:  solution singularity
FDICPBiCGStab:  Solving for p:  solution singularity
time step continuity errors : sum local = 0, global = 0, cumulative = 0
PIMPLE: iteration 4
smoothSolver:  Solving for Ux, Initial residual = 0, Final residual = 0, No Iterations 1
smoothSolver:  Solving for Uy, Initial residual = 0, Final residual = 0, No Iterations 1
FDICPBiCGStab:  Solving for p:  solution singularity
FDICPBiCGStab:  Solving for p:  solution singularity
FDICPBiCGStab:  Solving for p:  solution singularity
time step continuity errors : sum local = 0, global = 0, cumulative = 0
FDICPBiCGStab:  Solving for p:  solution singularity
FDICPBiCGStab:  Solving for p:  solution singularity
FDICPBiCGStab:  Solving for p:  solution singularity
time step continuity errors : sum local = 0, global = 0, cumulative = 0
FDICPBiCGStab:  Solving for p:  solution singularity
FDICPBiCGStab:  Solving for p:  solution singularity
FDICPBiCGStab:  Solving for p:  solution singularity
time step continuity errors : sum local = 0, global = 0, cumulative = 0
ExecutionTime = 4.66 s  ClockTime = 5 s

Courant Number mean: 1.26964522e-08 max: 0.6729410031
Time = 0.0016

PIMPLE: iteration 1
DICPCG:  Solving for cellDisplacementx, Initial residual = 0.03227449303, Final residual = 1.811335826e-06, No Iterations 1
DICPCG:  Solving for cellDisplacementy, Initial residual = 0.03225846063, Final residual = 1.66509092e-07, No Iterations 1
Mesh Courant Number mean: 1.295209423e-08 max: 0.6729430172
smoothSolver:  Solving for Ux, Initial residual = 0, Final residual = 0, No Iterations 1
smoothSolver:  Solving for Uy, Initial residual = 0, Final residual = 0, No Iterations 1
FDICPBiCGStab:  Solving for p:  solution singularity
FDICPBiCGStab:  Solving for p:  solution singularity
FDICPBiCGStab:  Solving for p:  solution singularity
time step continuity errors : sum local = 0, global = 0, cumulative = 0
FDICPBiCGStab:  Solving for p:  solution singularity
FDICPBiCGStab:  Solving for p:  solution singularity
FDICPBiCGStab:  Solving for p:  solution singularity
time step continuity errors : sum local = 0, global = 0, cumulative = 0
FDICPBiCGStab:  Solving for p:  solution singularity
FDICPBiCGStab:  Solving for p:  solution singularity
FDICPBiCGStab:  Solving for p:  solution singularity
time step continuity errors : sum local = 0, global = 0, cumulative = 0
PIMPLE: iteration 2
smoothSolver:  Solving for Ux, Initial residual = 0, Final residual = 0, No Iterations 1
smoothSolver:  Solving for Uy, Initial residual = 0, Final residual = 0, No Iterations 1
FDICPBiCGStab:  Solving for p:  solution singularity
FDICPBiCGStab:  Solving for p:  solution singularity
FDICPBiCGStab:  Solving for p:  solution singularity
time step continuity errors : sum local = 0, global = 0, cumulative = 0
FDICPBiCGStab:  Solving for p:  solution singularity
FDICPBiCGStab:  Solving for p:  solution singularity
FDICPBiCGStab:  Solving for p:  solution singularity
time step continuity errors : sum local = 0, global = 0, cumulative = 0
FDICPBiCGStab:  Solving for p:  solution singularity
FDICPBiCGStab:  Solving for p:  solution singularity
FDICPBiCGStab:  Solving for p:  solution singularity
time step continuity errors : sum local = 0, global = 0, cumulative = 0
PIMPLE: iteration 3
smoothSolver:  Solving for Ux, Initial residual = 0, Final residual = 0, No Iterations 1
smoothSolver:  Solving for Uy, Initial residual = 0, Final residual = 0, No Iterations 1
FDICPBiCGStab:  Solving for p:  solution singularity
FDICPBiCGStab:  Solving for p:  solution singularity
FDICPBiCGStab:  Solving for p:  solution singularity
time step continuity errors : sum local = 0, global = 0, cumulative = 0
FDICPBiCGStab:  Solving for p:  solution singularity
FDICPBiCGStab:  Solving for p:  solution singularity
FDICPBiCGStab:  Solving for p:  solution singularity
time step continuity errors : sum local = 0, global = 0, cumulative = 0
FDICPBiCGStab:  Solving for p:  solution singularity
FDICPBiCGStab:  Solving for p:  solution singularity
FDICPBiCGStab:  Solving for p:  solution singularity
time step continuity errors : sum local = 0, global = 0, cumulative = 0
PIMPLE: iteration 4
smoothSolver:  Solving for Ux, Initial residual = 0, Final residual = 0, No Iterations 1
smoothSolver:  Solving for Uy, Initial residual = 0, Final residual = 0, No Iterations 1
FDICPBiCGStab:  Solving for p:  solution singularity
FDICPBiCGStab:  Solving for p:  solution singularity
FDICPBiCGStab:  Solving for p:  solution singularity
time step continuity errors : sum local = 0, global = 0, cumulative = 0
FDICPBiCGStab:  Solving for p:  solution singularity
FDICPBiCGStab:  Solving for p:  solution singularity
FDICPBiCGStab:  Solving for p:  solution singularity
time step continuity errors : sum local = 0, global = 0, cumulative = 0
FDICPBiCGStab:  Solving for p:  solution singularity
FDICPBiCGStab:  Solving for p:  solution singularity
FDICPBiCGStab:  Solving for p:  solution singularity
time step continuity errors : sum local = 0, global = 0, cumulative = 0
ExecutionTime = 4.96 s  ClockTime = 5 s

Courant Number mean: 1.295209423e-08 max: 0.6729430172
Time = 0.0017

PIMPLE: iteration 1
DICPCG:  Solving for cellDisplacementx, Initial residual = 0.03031866201, Final residual = 1.701639096e-06, No Iterations 1
DICPCG:  Solving for cellDisplacementy, Initial residual = 0.03030346342, Final residual = 1.564759688e-07, No Iterations 1
Mesh Courant Number mean: 1.321040232e-08 max: 0.6729450306
smoothSolver:  Solving for Ux, Initial residual = 0, Final residual = 0, No Iterations 1
smoothSolver:  Solving for Uy, Initial residual = 0, Final residual = 0, No Iterations 1
FDICPBiCGStab:  Solving for p:  solution singularity
FDICPBiCGStab:  Solving for p:  solution singularity
FDICPBiCGStab:  Solving for p:  solution singularity
time step continuity errors : sum local = 0, global = 0, cumulative = 0
FDICPBiCGStab:  Solving for p:  solution singularity
FDICPBiCGStab:  Solving for p:  solution singularity
FDICPBiCGStab:  Solving for p:  solution singularity
time step continuity errors : sum local = 0, global = 0, cumulative = 0
FDICPBiCGStab:  Solving for p:  solution singularity
FDICPBiCGStab:  Solving for p:  solution singularity
FDICPBiCGStab:  Solving for p:  solution singularity
time step continuity errors : sum local = 0, global = 0, cumulative = 0
PIMPLE: iteration 2
smoothSolver:  Solving for Ux, Initial residual = 0, Final residual = 0, No Iterations 1
smoothSolver:  Solving for Uy, Initial residual = 0, Final residual = 0, No Iterations 1
FDICPBiCGStab:  Solving for p:  solution singularity
FDICPBiCGStab:  Solving for p:  solution singularity
FDICPBiCGStab:  Solving for p:  solution singularity
time step continuity errors : sum local = 0, global = 0, cumulative = 0
FDICPBiCGStab:  Solving for p:  solution singularity
FDICPBiCGStab:  Solving for p:  solution singularity
FDICPBiCGStab:  Solving for p:  solution singularity
time step continuity errors : sum local = 0, global = 0, cumulative = 0
FDICPBiCGStab:  Solving for p:  solution singularity
FDICPBiCGStab:  Solving for p:  solution singularity
FDICPBiCGStab:  Solving for p:  solution singularity
time step continuity errors : sum local = 0, global = 0, cumulative = 0
PIMPLE: iteration 3
smoothSolver:  Solving for Ux, Initial residual = 0, Final residual = 0, No Iterations 1
smoothSolver:  Solving for Uy, Initial residual = 0, Final residual = 0, No Iterations 1
FDICPBiCGStab:  Solving for p:  solution singularity
FDICPBiCGStab:  Solving for p:  solution singularity
FDICPBiCGStab:  Solving for p:  solution singularity
time step continuity errors : sum local = 0, global = 0, cumulative = 0
FDICPBiCGStab:  Solving for p:  solution singularity
FDICPBiCGStab:  Solving for p:  solution singularity
FDICPBiCGStab:  Solving for p:  solution singularity
time step continuity errors : sum local = 0, global = 0, cumulative = 0
FDICPBiCGStab:  Solving for p:  solution singularity
FDICPBiCGStab:  Solving for p:  solution singularity
FDICPBiCGStab:  Solving for p:  solution singularity
time step continuity errors : sum local = 0, global = 0, cumulative = 0
PIMPLE: iteration 4
smoothSolver:  Solving for Ux, Initial residual = 0, Final residual = 0, No Iterations 1
smoothSolver:  Solving for Uy, Initial residual = 0, Final residual = 0, No Iterations 1
FDICPBiCGStab:  Solving for p:  solution singularity
FDICPBiCGStab:  Solving for p:  solution singularity
FDICPBiCGStab:  Solving for p:  solution singularity
time step continuity errors : sum local = 0, global = 0, cumulative = 0
FDICPBiCGStab:  Solving for p:  solution singularity
FDICPBiCGStab:  Solving for p:  solution singularity
FDICPBiCGStab:  Solving for p:  solution singularity
time step continuity errors : sum local = 0, global = 0, cumulative = 0
FDICPBiCGStab:  Solving for p:  solution singularity
FDICPBiCGStab:  Solving for p:  solution singularity
FDICPBiCGStab:  Solving for p:  solution singularity
time step continuity errors : sum local = 0, global = 0, cumulative = 0
ExecutionTime = 5.25 s  ClockTime = 6 s

Courant Number mean: 1.321040232e-08 max: 0.6729450306
Time = 0.0018

PIMPLE: iteration 1
DICPCG:  Solving for cellDisplacementx, Initial residual = 0.02858634854, Final residual = 1.604469138e-06, No Iterations 1
DICPCG:  Solving for cellDisplacementy, Initial residual = 0.02857189425, Final residual = 1.475906957e-07, No Iterations 1
Mesh Courant Number mean: 1.347203439e-08 max: 0.6729470434
smoothSolver:  Solving for Ux, Initial residual = 0, Final residual = 0, No Iterations 1
smoothSolver:  Solving for Uy, Initial residual = 0, Final residual = 0, No Iterations 1
FDICPBiCGStab:  Solving for p:  solution singularity
FDICPBiCGStab:  Solving for p:  solution singularity
FDICPBiCGStab:  Solving for p:  solution singularity
time step continuity errors : sum local = 0, global = 0, cumulative = 0
FDICPBiCGStab:  Solving for p:  solution singularity
FDICPBiCGStab:  Solving for p:  solution singularity
FDICPBiCGStab:  Solving for p:  solution singularity
time step continuity errors : sum local = 0, global = 0, cumulative = 0
FDICPBiCGStab:  Solving for p:  solution singularity
FDICPBiCGStab:  Solving for p:  solution singularity
FDICPBiCGStab:  Solving for p:  solution singularity
time step continuity errors : sum local = 0, global = 0, cumulative = 0
PIMPLE: iteration 2
smoothSolver:  Solving for Ux, Initial residual = 0, Final residual = 0, No Iterations 1
smoothSolver:  Solving for Uy, Initial residual = 0, Final residual = 0, No Iterations 1
FDICPBiCGStab:  Solving for p:  solution singularity
FDICPBiCGStab:  Solving for p:  solution singularity
FDICPBiCGStab:  Solving for p:  solution singularity
time step continuity errors : sum local = 0, global = 0, cumulative = 0
FDICPBiCGStab:  Solving for p:  solution singularity
FDICPBiCGStab:  Solving for p:  solution singularity
FDICPBiCGStab:  Solving for p:  solution singularity
time step continuity errors : sum local = 0, global = 0, cumulative = 0
FDICPBiCGStab:  Solving for p:  solution singularity
FDICPBiCGStab:  Solving for p:  solution singularity
FDICPBiCGStab:  Solving for p:  solution singularity
time step continuity errors : sum local = 0, global = 0, cumulative = 0
PIMPLE: iteration 3
smoothSolver:  Solving for Ux, Initial residual = 0, Final residual = 0, No Iterations 1
smoothSolver:  Solving for Uy, Initial residual = 0, Final residual = 0, No Iterations 1
FDICPBiCGStab:  Solving for p:  solution singularity
FDICPBiCGStab:  Solving for p:  solution singularity
FDICPBiCGStab:  Solving for p:  solution singularity
time step continuity errors : sum local = 0, global = 0, cumulative = 0
FDICPBiCGStab:  Solving for p:  solution singularity
FDICPBiCGStab:  Solving for p:  solution singularity
FDICPBiCGStab:  Solving for p:  solution singularity
time step continuity errors : sum local = 0, global = 0, cumulative = 0
FDICPBiCGStab:  Solving for p:  solution singularity
FDICPBiCGStab:  Solving for p:  solution singularity
FDICPBiCGStab:  Solving for p:  solution singularity
time step continuity errors : sum local = 0, global = 0, cumulative = 0
PIMPLE: iteration 4
smoothSolver:  Solving for Ux, Initial residual = 0, Final residual = 0, No Iterations 1
smoothSolver:  Solving for Uy, Initial residual = 0, Final residual = 0, No Iterations 1
FDICPBiCGStab:  Solving for p:  solution singularity
FDICPBiCGStab:  Solving for p:  solution singularity
FDICPBiCGStab:  Solving for p:  solution singularity
time step continuity errors : sum local = 0, global = 0, cumulative = 0
FDICPBiCGStab:  Solving for p:  solution singularity
FDICPBiCGStab:  Solving for p:  solution singularity
FDICPBiCGStab:  Solving for p:  solution singularity
time step continuity errors : sum local = 0, global = 0, cumulative = 0
FDICPBiCGStab:  Solving for p:  solution singularity
FDICPBiCGStab:  Solving for p:  solution singularity
FDICPBiCGStab:  Solving for p:  solution singularity
time step continuity errors : sum local = 0, global = 0, cumulative = 0
ExecutionTime = 5.55 s  ClockTime = 6 s

Courant Number mean: 1.347203439e-08 max: 0.6729470434
Time = 0.0019

PIMPLE: iteration 1
DICPCG:  Solving for cellDisplacementx, Initial residual = 0.02704130715, Final residual = 1.517796423e-06, No Iterations 1
DICPCG:  Solving for cellDisplacementy, Initial residual = 0.02702752153, Final residual = 1.396738549e-07, No Iterations 1
Mesh Courant Number mean: 1.373761657e-08 max: 0.6729490558
smoothSolver:  Solving for Ux, Initial residual = 0, Final residual = 0, No Iterations 1
smoothSolver:  Solving for Uy, Initial residual = 0, Final residual = 0, No Iterations 1
FDICPBiCGStab:  Solving for p:  solution singularity
FDICPBiCGStab:  Solving for p:  solution singularity
FDICPBiCGStab:  Solving for p:  solution singularity
time step continuity errors : sum local = 0, global = 0, cumulative = 0
FDICPBiCGStab:  Solving for p:  solution singularity
FDICPBiCGStab:  Solving for p:  solution singularity
FDICPBiCGStab:  Solving for p:  solution singularity
time step continuity errors : sum local = 0, global = 0, cumulative = 0
FDICPBiCGStab:  Solving for p:  solution singularity
FDICPBiCGStab:  Solving for p:  solution singularity
FDICPBiCGStab:  Solving for p:  solution singularity
time step continuity errors : sum local = 0, global = 0, cumulative = 0
PIMPLE: iteration 2
smoothSolver:  Solving for Ux, Initial residual = 0, Final residual = 0, No Iterations 1
smoothSolver:  Solving for Uy, Initial residual = 0, Final residual = 0, No Iterations 1
FDICPBiCGStab:  Solving for p:  solution singularity
FDICPBiCGStab:  Solving for p:  solution singularity
FDICPBiCGStab:  Solving for p:  solution singularity
time step continuity errors : sum local = 0, global = 0, cumulative = 0
FDICPBiCGStab:  Solving for p:  solution singularity
FDICPBiCGStab:  Solving for p:  solution singularity
FDICPBiCGStab:  Solving for p:  solution singularity
time step continuity errors : sum local = 0, global = 0, cumulative = 0
FDICPBiCGStab:  Solving for p:  solution singularity
FDICPBiCGStab:  Solving for p:  solution singularity
FDICPBiCGStab:  Solving for p:  solution singularity
time step continuity errors : sum local = 0, global = 0, cumulative = 0
PIMPLE: iteration 3
smoothSolver:  Solving for Ux, Initial residual = 0, Final residual = 0, No Iterations 1
smoothSolver:  Solving for Uy, Initial residual = 0, Final residual = 0, No Iterations 1
FDICPBiCGStab:  Solving for p:  solution singularity
FDICPBiCGStab:  Solving for p:  solution singularity
FDICPBiCGStab:  Solving for p:  solution singularity
time step continuity errors : sum local = 0, global = 0, cumulative = 0
FDICPBiCGStab:  Solving for p:  solution singularity
FDICPBiCGStab:  Solving for p:  solution singularity
FDICPBiCGStab:  Solving for p:  solution singularity
time step continuity errors : sum local = 0, global = 0, cumulative = 0
FDICPBiCGStab:  Solving for p:  solution singularity
FDICPBiCGStab:  Solving for p:  solution singularity
FDICPBiCGStab:  Solving for p:  solution singularity
time step continuity errors : sum local = 0, global = 0, cumulative = 0
PIMPLE: iteration 4
smoothSolver:  Solving for Ux, Initial residual = 0, Final residual = 0, No Iterations 1
smoothSolver:  Solving for Uy, Initial residual = 0, Final residual = 0, No Iterations 1
FDICPBiCGStab:  Solving for p:  solution singularity
FDICPBiCGStab:  Solving for p:  solution singularity
FDICPBiCGStab:  Solving for p:  solution singularity
time step continuity errors : sum local = 0, global = 0, cumulative = 0
FDICPBiCGStab:  Solving for p:  solution singularity
FDICPBiCGStab:  Solving for p:  solution singularity
FDICPBiCGStab:  Solving for p:  solution singularity
time step continuity errors : sum local = 0, global = 0, cumulative = 0
FDICPBiCGStab:  Solving for p:  solution singularity
FDICPBiCGStab:  Solving for p:  solution singularity
FDICPBiCGStab:  Solving for p:  solution singularity
time step continuity errors : sum local = 0, global = 0, cumulative = 0
ExecutionTime = 5.85 s  ClockTime = 6 s

Courant Number mean: 1.373761657e-08 max: 0.6729490558
Time = 0.002

PIMPLE: iteration 1
DICPCG:  Solving for cellDisplacementx, Initial residual = 0.02565472725, Final residual = 1.440007162e-06, No Iterations 1
DICPCG:  Solving for cellDisplacementy, Initial residual = 0.02564154465, Final residual = 1.325694305e-07, No Iterations 1
Mesh Courant Number mean: 1.400778259e-08 max: 0.6729510679
smoothSolver:  Solving for Ux, Initial residual = 0, Final residual = 0, No Iterations 1
smoothSolver:  Solving for Uy, Initial residual = 0, Final residual = 0, No Iterations 1
FDICPBiCGStab:  Solving for p:  solution singularity
FDICPBiCGStab:  Solving for p:  solution singularity
FDICPBiCGStab:  Solving for p:  solution singularity
time step continuity errors : sum local = 0, global = 0, cumulative = 0
FDICPBiCGStab:  Solving for p:  solution singularity
FDICPBiCGStab:  Solving for p:  solution singularity
FDICPBiCGStab:  Solving for p:  solution singularity
time step continuity errors : sum local = 0, global = 0, cumulative = 0
FDICPBiCGStab:  Solving for p:  solution singularity
FDICPBiCGStab:  Solving for p:  solution singularity
FDICPBiCGStab:  Solving for p:  solution singularity
time step continuity errors : sum local = 0, global = 0, cumulative = 0
PIMPLE: iteration 2
smoothSolver:  Solving for Ux, Initial residual = 0, Final residual = 0, No Iterations 1
smoothSolver:  Solving for Uy, Initial residual = 0, Final residual = 0, No Iterations 1
FDICPBiCGStab:  Solving for p:  solution singularity
FDICPBiCGStab:  Solving for p:  solution singularity
FDICPBiCGStab:  Solving for p:  solution singularity
time step continuity errors : sum local = 0, global = 0, cumulative = 0
FDICPBiCGStab:  Solving for p:  solution singularity
FDICPBiCGStab:  Solving for p:  solution singularity
FDICPBiCGStab:  Solving for p:  solution singularity
time step continuity errors : sum local = 0, global = 0, cumulative = 0
FDICPBiCGStab:  Solving for p:  solution singularity
FDICPBiCGStab:  Solving for p:  solution singularity
FDICPBiCGStab:  Solving for p:  solution singularity
[...]
FDICPBiCGStab:  Solving for p:  solution singularity
FDICPBiCGStab:  Solving for p:  solution singularity
time step continuity errors : sum local = 0, global = 0, cumulative = 0
FDICPBiCGStab:  Solving for p:  solution singularity
FDICPBiCGStab:  Solving for p:  solution singularity
FDICPBiCGStab:  Solving for p:  solution singularity
time step continuity errors : sum local = 0, global = 0, cumulative = 0
PIMPLE: iteration 2
smoothSolver:  Solving for Ux, Initial residual = 0, Final residual = 0, No Iterations 1
smoothSolver:  Solving for Uy, Initial residual = 0, Final residual = 0, No Iterations 1
FDICPBiCGStab:  Solving for p:  solution singularity
FDICPBiCGStab:  Solving for p:  solution singularity
FDICPBiCGStab:  Solving for p:  solution singularity
time step continuity errors : sum local = 0, global = 0, cumulative = 0
FDICPBiCGStab:  Solving for p:  solution singularity
FDICPBiCGStab:  Solving for p:  solution singularity
FDICPBiCGStab:  Solving for p:  solution singularity
time step continuity errors : sum local = 0, global = 0, cumulative = 0
FDICPBiCGStab:  Solving for p:  solution singularity
FDICPBiCGStab:  Solving for p:  solution singularity
FDICPBiCGStab:  Solving for p:  solution singularity
time step continuity errors : sum local = 0, global = 0, cumulative = 0
PIMPLE: iteration 3
smoothSolver:  Solving for Ux, Initial residual = 0, Final residual = 0, No Iterations 1
smoothSolver:  Solving for Uy, Initial residual = 0, Final residual = 0, No Iterations 1
FDICPBiCGStab:  Solving for p:  solution singularity
FDICPBiCGStab:  Solving for p:  solution singularity
FDICPBiCGStab:  Solving for p:  solution singularity
time step continuity errors : sum local = 0, global = 0, cumulative = 0
FDICPBiCGStab:  Solving for p:  solution singularity
FDICPBiCGStab:  Solving for p:  solution singularity
FDICPBiCGStab:  Solving for p:  solution singularity
time step continuity errors : sum local = 0, global = 0, cumulative = 0
FDICPBiCGStab:  Solving for p:  solution singularity
FDICPBiCGStab:  Solving for p:  solution singularity
FDICPBiCGStab:  Solving for p:  solution singularity
time step continuity errors : sum local = 0, global = 0, cumulative = 0
PIMPLE: iteration 4
smoothSolver:  Solving for Ux, Initial residual = 0, Final residual = 0, No Iterations 1
smoothSolver:  Solving for Uy, Initial residual = 0, Final residual = 0, No Iterations 1
FDICPBiCGStab:  Solving for p:  solution singularity
FDICPBiCGStab:  Solving for p:  solution singularity
FDICPBiCGStab:  Solving for p:  solution singularity
time step continuity errors : sum local = 0, global = 0, cumulative = 0
FDICPBiCGStab:  Solving for p:  solution singularity
FDICPBiCGStab:  Solving for p:  solution singularity
FDICPBiCGStab:  Solving for p:  solution singularity
time step continuity errors : sum local = 0, global = 0, cumulative = 0
FDICPBiCGStab:  Solving for p:  solution singularity
FDICPBiCGStab:  Solving for p:  solution singularity
FDICPBiCGStab:  Solving for p:  solution singularity
time step continuity errors : sum local = 0, global = 0, cumulative = 0
ExecutionTime = 347.37 s  ClockTime = 348 s

Courant Number mean: 4.221559636e+14 max: 250.1266163
Time = 0.1033

PIMPLE: iteration 1
DICPCG:  Solving for cellDisplacementx, Initial residual = 8.343560603e-09, Final residual = 8.343560603e-09, No Iterations 0
DICPCG:  Solving for cellDisplacementy, Initial residual = 8.788946148e-07, Final residual = 8.788946148e-07, No Iterations 0
Mesh Courant Number mean: 1.375630707e+15 max: 342.993002
smoothSolver:  Solving for Ux, Initial residual = 0, Final residual = 0, No Iterations 1
smoothSolver:  Solving for Uy, Initial residual = 0, Final residual = 0, No Iterations 1
FDICPBiCGStab:  Solving for p:  solution singularity
FDICPBiCGStab:  Solving for p:  solution singularity
FDICPBiCGStab:  Solving for p:  solution singularity
time step continuity errors : sum local = 0, global = 0, cumulative = 0
FDICPBiCGStab:  Solving for p:  solution singularity
FDICPBiCGStab:  Solving for p:  solution singularity
FDICPBiCGStab:  Solving for p:  solution singularity
time step continuity errors : sum local = 0, global = 0, cumulative = 0
FDICPBiCGStab:  Solving for p:  solution singularity
FDICPBiCGStab:  Solving for p:  solution singularity
FDICPBiCGStab:  Solving for p:  solution singularity
time step continuity errors : sum local = 0, global = 0, cumulative = 0
PIMPLE: iteration 2
smoothSolver:  Solving for Ux, Initial residual = 0, Final residual = 0, No Iterations 1
smoothSolver:  Solving for Uy, Initial residual = 0, Final residual = 0, No Iterations 1
FDICPBiCGStab:  Solving for p:  solution singularity
FDICPBiCGStab:  Solving for p:  solution singularity
FDICPBiCGStab:  Solving for p:  solution singularity
time step continuity errors : sum local = 0, global = 0, cumulative = 0
FDICPBiCGStab:  Solving for p:  solution singularity
FDICPBiCGStab:  Solving for p:  solution singularity
FDICPBiCGStab:  Solving for p:  solution singularity
time step continuity errors : sum local = 0, global = 0, cumulative = 0
FDICPBiCGStab:  Solving for p:  solution singularity
FDICPBiCGStab:  Solving for p:  solution singularity
FDICPBiCGStab:  Solving for p:  solution singularity
time step continuity errors : sum local = 0, global = 0, cumulative = 0
PIMPLE: iteration 3
smoothSolver:  Solving for Ux, Initial residual = 0, Final residual = 0, No Iterations 1
smoothSolver:  Solving for Uy, Initial residual = 0, Final residual = 0, No Iterations 1
FDICPBiCGStab:  Solving for p:  solution singularity
FDICPBiCGStab:  Solving for p:  solution singularity
FDICPBiCGStab:  Solving for p:  solution singularity
time step continuity errors : sum local = 0, global = 0, cumulative = 0
FDICPBiCGStab:  Solving for p:  solution singularity
FDICPBiCGStab:  Solving for p:  solution singularity
FDICPBiCGStab:  Solving for p:  solution singularity
time step continuity errors : sum local = 0, global = 0, cumulative = 0
FDICPBiCGStab:  Solving for p:  solution singularity
FDICPBiCGStab:  Solving for p:  solution singularity
FDICPBiCGStab:  Solving for p:  solution singularity
time step continuity errors : sum local = 0, global = 0, cumulative = 0
PIMPLE: iteration 4
smoothSolver:  Solving for Ux, Initial residual = 0, Final residual = 0, No Iterations 1
smoothSolver:  Solving for Uy, Initial residual = 0, Final residual = 0, No Iterations 1
FDICPBiCGStab:  Solving for p:  solution singularity
FDICPBiCGStab:  Solving for p:  solution singularity
FDICPBiCGStab:  Solving for p:  solution singularity
time step continuity errors : sum local = 0, global = 0, cumulative = 0
FDICPBiCGStab:  Solving for p:  solution singularity
FDICPBiCGStab:  Solving for p:  solution singularity
FDICPBiCGStab:  Solving for p:  solution singularity
time step continuity errors : sum local = 0, global = 0, cumulative = 0
FDICPBiCGStab:  Solving for p:  solution singularity
FDICPBiCGStab:  Solving for p:  solution singularity
FDICPBiCGStab:  Solving for p:  solution singularity
time step continuity errors : sum local = 0, global = 0, cumulative = 0
ExecutionTime = 347.75 s  ClockTime = 349 s

Courant Number mean: 1.375630707e+15 max: 342.993002
Time = 0.1034

PIMPLE: iteration 1
DICPCG:  Solving for cellDisplacementx, Initial residual = 6.793691898e-09, Final residual = 6.793691898e-09, No Iterations 0
DICPCG:  Solving for cellDisplacementy, Initial residual = 5.826066164e-07, Final residual = 5.826066164e-07, No Iterations 0
Mesh Courant Number mean: 1.929198454e+14 max: 144.5768394
smoothSolver:  Solving for Ux, Initial residual = 0, Final residual = 0, No Iterations 1
smoothSolver:  Solving for Uy, Initial residual = 0, Final residual = 0, No Iterations 1
FDICPBiCGStab:  Solving for p:  solution singularity
FDICPBiCGStab:  Solving for p:  solution singularity
FDICPBiCGStab:  Solving for p:  solution singularity
time step continuity errors : sum local = 0, global = 0, cumulative = 0
FDICPBiCGStab:  Solving for p:  solution singularity
FDICPBiCGStab:  Solving for p:  solution singularity
FDICPBiCGStab:  Solving for p:  solution singularity
time step continuity errors : sum local = 0, global = 0, cumulative = 0
FDICPBiCGStab:  Solving for p:  solution singularity
FDICPBiCGStab:  Solving for p:  solution singularity
FDICPBiCGStab:  Solving for p:  solution singularity
time step continuity errors : sum local = 0, global = 0, cumulative = 0
PIMPLE: iteration 2
smoothSolver:  Solving for Ux, Initial residual = 0, Final residual = 0, No Iterations 1
smoothSolver:  Solving for Uy, Initial residual = 0, Final residual = 0, No Iterations 1
FDICPBiCGStab:  Solving for p:  solution singularity
FDICPBiCGStab:  Solving for p:  solution singularity
FDICPBiCGStab:  Solving for p:  solution singularity
time step continuity errors : sum local = 0, global = 0, cumulative = 0
FDICPBiCGStab:  Solving for p:  solution singularity
FDICPBiCGStab:  Solving for p:  solution singularity
FDICPBiCGStab:  Solving for p:  solution singularity
time step continuity errors : sum local = 0, global = 0, cumulative = 0
FDICPBiCGStab:  Solving for p:  solution singularity
FDICPBiCGStab:  Solving for p:  solution singularity
FDICPBiCGStab:  Solving for p:  solution singularity
time step continuity errors : sum local = 0, global = 0, cumulative = 0
PIMPLE: iteration 3
smoothSolver:  Solving for Ux, Initial residual = 0, Final residual = 0, No Iterations 1
smoothSolver:  Solving for Uy, Initial residual = 0, Final residual = 0, No Iterations 1
FDICPBiCGStab:  Solving for p:  solution singularity
FDICPBiCGStab:  Solving for p:  solution singularity
FDICPBiCGStab:  Solving for p:  solution singularity
time step continuity errors : sum local = 0, global = 0, cumulative = 0
FDICPBiCGStab:  Solving for p:  solution singularity
FDICPBiCGStab:  Solving for p:  solution singularity
FDICPBiCGStab:  Solving for p:  solution singularity
time step continuity errors : sum local = 0, global = 0, cumulative = 0
FDICPBiCGStab:  Solving for p:  solution singularity
FDICPBiCGStab:  Solving for p:  solution singularity
FDICPBiCGStab:  Solving for p:  solution singularity
time step continuity errors : sum local = 0, global = 0, cumulative = 0
PIMPLE: iteration 4
smoothSolver:  Solving for Ux, Initial residual = 0, Final residual = 0, No Iterations 1
smoothSolver:  Solving for Uy, Initial residual = 0, Final residual = 0, No Iterations 1
FDICPBiCGStab:  Solving for p:  solution singularity
FDICPBiCGStab:  Solving for p:  solution singularity
FDICPBiCGStab:  Solving for p:  solution singularity
time step continuity errors : sum local = 0, global = 0, cumulative = 0
FDICPBiCGStab:  Solving for p:  solution singularity
FDICPBiCGStab:  Solving for p:  solution singularity
FDICPBiCGStab:  Solving for p:  solution singularity
time step continuity errors : sum local = 0, global = 0, cumulative = 0
FDICPBiCGStab:  Solving for p:  solution singularity
FDICPBiCGStab:  Solving for p:  solution singularity
FDICPBiCGStab:  Solving for p:  solution singularity
time step continuity errors : sum local = 0, global = 0, cumulative = 0
ExecutionTime = 348.13 s  ClockTime = 349 s

Courant Number mean: 1.929198454e+14 max: 144.5768394
Time = 0.1035

PIMPLE: iteration 1
DICPCG:  Solving for cellDisplacementx, Initial residual = 8.413506863e-09, Final residual = 8.413506863e-09, No Iterations 0
DICPCG:  Solving for cellDisplacementy, Initial residual = 6.534559714e-07, Final residual = 6.534559714e-07, No Iterations 0
Mesh Courant Number mean: 1.56427616e+14 max: 2192.946764
smoothSolver:  Solving for Ux, Initial residual = 0, Final residual = 0, No Iterations 1
smoothSolver:  Solving for Uy, Initial residual = 0, Final residual = 0, No Iterations 1
FDICPBiCGStab:  Solving for p:  solution singularity
FDICPBiCGStab:  Solving for p:  solution singularity
FDICPBiCGStab:  Solving for p:  solution singularity
time step continuity errors : sum local = 0, global = 0, cumulative = 0
FDICPBiCGStab:  Solving for p:  solution singularity
FDICPBiCGStab:  Solving for p:  solution singularity
FDICPBiCGStab:  Solving for p:  solution singularity
time step continuity errors : sum local = 0, global = 0, cumulative = 0
FDICPBiCGStab:  Solving for p:  solution singularity
FDICPBiCGStab:  Solving for p:  solution singularity
FDICPBiCGStab:  Solving for p:  solution singularity
time step continuity errors : sum local = 0, global = 0, cumulative = 0
PIMPLE: iteration 2
smoothSolver:  Solving for Ux, Initial residual = 0, Final residual = 0, No Iterations 1
smoothSolver:  Solving for Uy, Initial residual = 0, Final residual = 0, No Iterations 1
FDICPBiCGStab:  Solving for p:  solution singularity
FDICPBiCGStab:  Solving for p:  solution singularity
FDICPBiCGStab:  Solving for p:  solution singularity
time step continuity errors : sum local = 0, global = 0, cumulative = 0
FDICPBiCGStab:  Solving for p:  solution singularity
FDICPBiCGStab:  Solving for p:  solution singularity
FDICPBiCGStab:  Solving for p:  solution singularity
time step continuity errors : sum local = 0, global = 0, cumulative = 0
FDICPBiCGStab:  Solving for p:  solution singularity
FDICPBiCGStab:  Solving for p:  solution singularity
FDICPBiCGStab:  Solving for p:  solution singularity
time step continuity errors : sum local = 0, global = 0, cumulative = 0
PIMPLE: iteration 3
smoothSolver:  Solving for Ux, Initial residual = 0, Final residual = 0, No Iterations 1
smoothSolver:  Solving for Uy, Initial residual = 0, Final residual = 0, No Iterations 1
FDICPBiCGStab:  Solving for p:  solution singularity
FDICPBiCGStab:  Solving for p:  solution singularity
FDICPBiCGStab:  Solving for p:  solution singularity
time step continuity errors : sum local = 0, global = 0, cumulative = 0
FDICPBiCGStab:  Solving for p:  solution singularity
FDICPBiCGStab:  Solving for p:  solution singularity
FDICPBiCGStab:  Solving for p:  solution singularity
time step continuity errors : sum local = 0, global = 0, cumulative = 0
FDICPBiCGStab:  Solving for p:  solution singularity
FDICPBiCGStab:  Solving for p:  solution singularity
FDICPBiCGStab:  Solving for p:  solution singularity
time step continuity errors : sum local = 0, global = 0, cumulative = 0
PIMPLE: iteration 4
smoothSolver:  Solving for Ux, Initial residual = 0, Final residual = 0, No Iterations 1
smoothSolver:  Solving for Uy, Initial residual = 0, Final residual = 0, No Iterations 1
FDICPBiCGStab:  Solving for p:  solution singularity
FDICPBiCGStab:  Solving for p:  solution singularity
FDICPBiCGStab:  Solving for p:  solution singularity
time step continuity errors : sum local = 0, global = 0, cumulative = 0
FDICPBiCGStab:  Solving for p:  solution singularity
FDICPBiCGStab:  Solving for p:  solution singularity
FDICPBiCGStab:  Solving for p:  solution singularity
time step continuity errors : sum local = 0, global = 0, cumulative = 0
FDICPBiCGStab:  Solving for p:  solution singularity
FDICPBiCGStab:  Solving for p:  solution singularity
FDICPBiCGStab:  Solving for p:  solution singularity
time step continuity errors : sum local = 0, global = 0, cumulative = 0
ExecutionTime = 348.5 s  ClockTime = 349 s

Courant Number mean: 1.56427616e+14 max: 2192.946764
Time = 0.1036

PIMPLE: iteration 1
DICPCG:  Solving for cellDisplacementx, Initial residual = 6.613980967e-09, Final residual = 6.613980967e-09, No Iterations 0
DICPCG:  Solving for cellDisplacementy, Initial residual = 5.725432565e-07, Final residual = 5.725432565e-07, No Iterations 0
Mesh Courant Number mean: 3.508061309e+13 max: 2766.300293
smoothSolver:  Solving for Ux, Initial residual = 0, Final residual = 0, No Iterations 1
smoothSolver:  Solving for Uy, Initial residual = 0, Final residual = 0, No Iterations 1
FDICPBiCGStab:  Solving for p:  solution singularity
FDICPBiCGStab:  Solving for p:  solution singularity
FDICPBiCGStab:  Solving for p:  solution singularity
time step continuity errors : sum local = 0, global = 0, cumulative = 0
FDICPBiCGStab:  Solving for p:  solution singularity
FDICPBiCGStab:  Solving for p:  solution singularity
FDICPBiCGStab:  Solving for p:  solution singularity
time step continuity errors : sum local = 0, global = 0, cumulative = 0
FDICPBiCGStab:  Solving for p:  solution singularity
FDICPBiCGStab:  Solving for p:  solution singularity
FDICPBiCGStab:  Solving for p:  solution singularity
time step continuity errors : sum local = 0, global = 0, cumulative = 0
PIMPLE: iteration 2
smoothSolver:  Solving for Ux, Initial residual = 0, Final residual = 0, No Iterations 1
smoothSolver:  Solving for Uy, Initial residual = 0, Final residual = 0, No Iterations 1
FDICPBiCGStab:  Solving for p:  solution singularity
FDICPBiCGStab:  Solving for p:  solution singularity
FDICPBiCGStab:  Solving for p:  solution singularity
time step continuity errors : sum local = 0, global = 0, cumulative = 0
FDICPBiCGStab:  Solving for p:  solution singularity
FDICPBiCGStab:  Solving for p:  solution singularity
FDICPBiCGStab:  Solving for p:  solution singularity
time step continuity errors : sum local = 0, global = 0, cumulative = 0
FDICPBiCGStab:  Solving for p:  solution singularity
FDICPBiCGStab:  Solving for p:  solution singularity
FDICPBiCGStab:  Solving for p:  solution singularity
time step continuity errors : sum local = 0, global = 0, cumulative = 0
PIMPLE: iteration 3
smoothSolver:  Solving for Ux, Initial residual = 0, Final residual = 0, No Iterations 1
smoothSolver:  Solving for Uy, Initial residual = 0, Final residual = 0, No Iterations 1
FDICPBiCGStab:  Solving for p:  solution singularity
FDICPBiCGStab:  Solving for p:  solution singularity
FDICPBiCGStab:  Solving for p:  solution singularity
time step continuity errors : sum local = 0, global = 0, cumulative = 0
FDICPBiCGStab:  Solving for p:  solution singularity
FDICPBiCGStab:  Solving for p:  solution singularity
FDICPBiCGStab:  Solving for p:  solution singularity
time step continuity errors : sum local = 0, global = 0, cumulative = 0
FDICPBiCGStab:  Solving for p:  solution singularity
FDICPBiCGStab:  Solving for p:  solution singularity
FDICPBiCGStab:  Solving for p:  solution singularity
time step continuity errors : sum local = 0, global = 0, cumulative = 0
PIMPLE: iteration 4
smoothSolver:  Solving for Ux, Initial residual = 0, Final residual = 0, No Iterations 1
smoothSolver:  Solving for Uy, Initial residual = 0, Final residual = 0, No Iterations 1
FDICPBiCGStab:  Solving for p:  solution singularity
FDICPBiCGStab:  Solving for p:  solution singularity
FDICPBiCGStab:  Solving for p:  solution singularity
time step continuity errors : sum local = 0, global = 0, cumulative = 0
FDICPBiCGStab:  Solving for p:  solution singularity
FDICPBiCGStab:  Solving for p:  solution singularity
FDICPBiCGStab:  Solving for p:  solution singularity
time step continuity errors : sum local = 0, global = 0, cumulative = 0
FDICPBiCGStab:  Solving for p:  solution singularity
FDICPBiCGStab:  Solving for p:  solution singularity
FDICPBiCGStab:  Solving for p:  solution singularity
time step continuity errors : sum local = 0, global = 0, cumulative = 0
ExecutionTime = 348.87 s  ClockTime = 350 s

Courant Number mean: 3.508061309e+13 max: 2766.300293
Time = 0.1037

PIMPLE: iteration 1
DICPCG:  Solving for cellDisplacementx, Initial residual = 7.545649248e-09, Final residual = 7.545649248e-09, No Iterations 0
DICPCG:  Solving for cellDisplacementy, Initial residual = 6.314612885e-07, Final residual = 6.314612885e-07, No Iterations 0
Mesh Courant Number mean: 1.838174343e+13 max: 320.5451169
smoothSolver:  Solving for Ux, Initial residual = 0, Final residual = 0, No Iterations 1
smoothSolver:  Solving for Uy, Initial residual = 0, Final residual = 0, No Iterations 1
FDICPBiCGStab:  Solving for p:  solution singularity
FDICPBiCGStab:  Solving for p:  solution singularity
FDICPBiCGStab:  Solving for p:  solution singularity
time step continuity errors : sum local = 0, global = 0, cumulative = 0
FDICPBiCGStab:  Solving for p:  solution singularity
FDICPBiCGStab:  Solving for p:  solution singularity
